
---------- Begin Simulation Statistics ----------
final_tick                                22829481000                       # Number of ticks from beginning of simulation (restored from checkpoints and never reset)
host_inst_rate                                 231558                       # Simulator instruction rate (inst/s)
host_mem_usage                                 691640                       # Number of bytes of host memory used
host_op_rate                                   232212                       # Simulator op (including micro ops) rate (op/s)
host_seconds                                    43.19                       # Real time elapsed on the host
host_tick_rate                              528630635                       # Simulator tick rate (ticks/s)
sim_freq                                 1000000000000                       # Frequency of simulated ticks
sim_insts                                    10000000                       # Number of instructions simulated
sim_ops                                      10028311                       # Number of ops (including micro ops) simulated
sim_seconds                                  0.022829                       # Number of seconds simulated
sim_ticks                                 22829481000                       # Number of ticks simulated
system.cpu.branchPred.BTBCorrect                    0                       # Number of correct BTB predictions (this stat may not work properly.
system.cpu.branchPred.BTBHitPct             98.812454                       # BTB Hit Percentage
system.cpu.branchPred.BTBHits                  300295                       # Number of BTB hits
system.cpu.branchPred.BTBLookups               303904                       # Number of BTB lookups
system.cpu.branchPred.RASInCorrect                  5                       # Number of incorrect RAS predictions.
system.cpu.branchPred.condIncorrect              7159                       # Number of conditional branches incorrect
system.cpu.branchPred.condPredicted            603856                       # Number of conditional branches predicted
system.cpu.branchPred.indirectHits                130                       # Number of indirect target hits.
system.cpu.branchPred.indirectLookups             395                       # Number of indirect predictor lookups.
system.cpu.branchPred.indirectMisses              265                       # Number of indirect misses.
system.cpu.branchPred.lookups                  716782                       # Number of BP lookups
system.cpu.branchPred.usedRAS                    6944                       # Number of times the RAS was used to get a target.
system.cpu.branchPredindirectMispredicted          168                       # Number of mispredicted indirect branches.
system.cpu.committedInsts                    10000000                       # Number of instructions committed
system.cpu.committedOps                      10028311                       # Number of ops (including micro ops) committed
system.cpu.cpi                               2.282948                       # CPI: cycles per instruction
system.cpu.discardedOps                         15364                       # Number of ops (including micro ops) which were discarded before commit
system.cpu.dtb.accesses                             0                       # DTB accesses
system.cpu.dtb.align_faults                         0                       # Number of TLB faults due to alignment restrictions
system.cpu.dtb.domain_faults                        0                       # Number of TLB faults due to domain restrictions
system.cpu.dtb.flush_entries                        0                       # Number of entries that have been flushed from TLB
system.cpu.dtb.flush_tlb                            0                       # Number of times complete TLB was flushed
system.cpu.dtb.flush_tlb_asid                       0                       # Number of times TLB was flushed by ASID
system.cpu.dtb.flush_tlb_mva                        0                       # Number of times TLB was flushed by MVA
system.cpu.dtb.flush_tlb_mva_asid                   0                       # Number of times TLB was flushed by MVA & ASID
system.cpu.dtb.hits                                 0                       # DTB hits
system.cpu.dtb.inst_accesses                        0                       # ITB inst accesses
system.cpu.dtb.inst_hits                            0                       # ITB inst hits
system.cpu.dtb.inst_misses                          0                       # ITB inst misses
system.cpu.dtb.misses                               0                       # DTB misses
system.cpu.dtb.perms_faults                         0                       # Number of TLB faults due to permissions restrictions
system.cpu.dtb.prefetch_faults                      0                       # Number of TLB faults due to prefetch
system.cpu.dtb.read_accesses                        0                       # DTB read accesses
system.cpu.dtb.read_hits                            0                       # DTB read hits
system.cpu.dtb.read_misses                          0                       # DTB read misses
system.cpu.dtb.stage2_mmu.stage2_tlb.accesses            0                       # DTB accesses
system.cpu.dtb.stage2_mmu.stage2_tlb.align_faults            0                       # Number of TLB faults due to alignment restrictions
system.cpu.dtb.stage2_mmu.stage2_tlb.domain_faults            0                       # Number of TLB faults due to domain restrictions
system.cpu.dtb.stage2_mmu.stage2_tlb.flush_entries            0                       # Number of entries that have been flushed from TLB
system.cpu.dtb.stage2_mmu.stage2_tlb.flush_tlb            0                       # Number of times complete TLB was flushed
system.cpu.dtb.stage2_mmu.stage2_tlb.flush_tlb_asid            0                       # Number of times TLB was flushed by ASID
system.cpu.dtb.stage2_mmu.stage2_tlb.flush_tlb_mva            0                       # Number of times TLB was flushed by MVA
system.cpu.dtb.stage2_mmu.stage2_tlb.flush_tlb_mva_asid            0                       # Number of times TLB was flushed by MVA & ASID
system.cpu.dtb.stage2_mmu.stage2_tlb.hits            0                       # DTB hits
system.cpu.dtb.stage2_mmu.stage2_tlb.inst_accesses            0                       # ITB inst accesses
system.cpu.dtb.stage2_mmu.stage2_tlb.inst_hits            0                       # ITB inst hits
system.cpu.dtb.stage2_mmu.stage2_tlb.inst_misses            0                       # ITB inst misses
system.cpu.dtb.stage2_mmu.stage2_tlb.misses            0                       # DTB misses
system.cpu.dtb.stage2_mmu.stage2_tlb.perms_faults            0                       # Number of TLB faults due to permissions restrictions
system.cpu.dtb.stage2_mmu.stage2_tlb.prefetch_faults            0                       # Number of TLB faults due to prefetch
system.cpu.dtb.stage2_mmu.stage2_tlb.read_accesses            0                       # DTB read accesses
system.cpu.dtb.stage2_mmu.stage2_tlb.read_hits            0                       # DTB read hits
system.cpu.dtb.stage2_mmu.stage2_tlb.read_misses            0                       # DTB read misses
system.cpu.dtb.stage2_mmu.stage2_tlb.walker.walkRequestOrigin_Requested::Data            0                       # Table walker requests started/completed, data/inst
system.cpu.dtb.stage2_mmu.stage2_tlb.walker.walkRequestOrigin_Requested::Inst            0                       # Table walker requests started/completed, data/inst
system.cpu.dtb.stage2_mmu.stage2_tlb.walker.walkRequestOrigin_Requested::total            0                       # Table walker requests started/completed, data/inst
system.cpu.dtb.stage2_mmu.stage2_tlb.walker.walkRequestOrigin_Completed::Data            0                       # Table walker requests started/completed, data/inst
system.cpu.dtb.stage2_mmu.stage2_tlb.walker.walkRequestOrigin_Completed::Inst            0                       # Table walker requests started/completed, data/inst
system.cpu.dtb.stage2_mmu.stage2_tlb.walker.walkRequestOrigin_Completed::total            0                       # Table walker requests started/completed, data/inst
system.cpu.dtb.stage2_mmu.stage2_tlb.walker.walkRequestOrigin::total            0                       # Table walker requests started/completed, data/inst
system.cpu.dtb.stage2_mmu.stage2_tlb.walker.walks            0                       # Table walker walks requested
system.cpu.dtb.stage2_mmu.stage2_tlb.write_accesses            0                       # DTB write accesses
system.cpu.dtb.stage2_mmu.stage2_tlb.write_hits            0                       # DTB write hits
system.cpu.dtb.stage2_mmu.stage2_tlb.write_misses            0                       # DTB write misses
system.cpu.dtb.walker.walkRequestOrigin_Requested::Data            0                       # Table walker requests started/completed, data/inst
system.cpu.dtb.walker.walkRequestOrigin_Requested::Inst            0                       # Table walker requests started/completed, data/inst
system.cpu.dtb.walker.walkRequestOrigin_Requested::total            0                       # Table walker requests started/completed, data/inst
system.cpu.dtb.walker.walkRequestOrigin_Completed::Data            0                       # Table walker requests started/completed, data/inst
system.cpu.dtb.walker.walkRequestOrigin_Completed::Inst            0                       # Table walker requests started/completed, data/inst
system.cpu.dtb.walker.walkRequestOrigin_Completed::total            0                       # Table walker requests started/completed, data/inst
system.cpu.dtb.walker.walkRequestOrigin::total            0                       # Table walker requests started/completed, data/inst
system.cpu.dtb.walker.walks                         0                       # Table walker walks requested
system.cpu.dtb.write_accesses                       0                       # DTB write accesses
system.cpu.dtb.write_hits                           0                       # DTB write hits
system.cpu.dtb.write_misses                         0                       # DTB write misses
system.cpu.fetch2.amo_instructions                  0                       # Number of memory atomic instructions successfully decoded
system.cpu.fetch2.fp_instructions                   0                       # Number of floating point instructions successfully decoded
system.cpu.fetch2.int_instructions            2169304                       # Number of integer instructions successfully decoded
system.cpu.fetch2.load_instructions           5801044                       # Number of memory load instructions successfully decoded
system.cpu.fetch2.store_instructions          1454385                       # Number of memory store instructions successfully decoded
system.cpu.fetch2.vec_instructions                  0                       # Number of SIMD instructions successfully decoded
system.cpu.idleCycles                         8336160                       # Total number of cycles that the object has spent stopped
system.cpu.ipc                               0.438030                       # IPC: instructions per cycle
system.cpu.itb.accesses                             0                       # DTB accesses
system.cpu.itb.align_faults                         0                       # Number of TLB faults due to alignment restrictions
system.cpu.itb.domain_faults                        0                       # Number of TLB faults due to domain restrictions
system.cpu.itb.flush_entries                        0                       # Number of entries that have been flushed from TLB
system.cpu.itb.flush_tlb                            0                       # Number of times complete TLB was flushed
system.cpu.itb.flush_tlb_asid                       0                       # Number of times TLB was flushed by ASID
system.cpu.itb.flush_tlb_mva                        0                       # Number of times TLB was flushed by MVA
system.cpu.itb.flush_tlb_mva_asid                   0                       # Number of times TLB was flushed by MVA & ASID
system.cpu.itb.hits                                 0                       # DTB hits
system.cpu.itb.inst_accesses                        0                       # ITB inst accesses
system.cpu.itb.inst_hits                            0                       # ITB inst hits
system.cpu.itb.inst_misses                          0                       # ITB inst misses
system.cpu.itb.misses                               0                       # DTB misses
system.cpu.itb.perms_faults                         0                       # Number of TLB faults due to permissions restrictions
system.cpu.itb.prefetch_faults                      0                       # Number of TLB faults due to prefetch
system.cpu.itb.read_accesses                        0                       # DTB read accesses
system.cpu.itb.read_hits                            0                       # DTB read hits
system.cpu.itb.read_misses                          0                       # DTB read misses
system.cpu.itb.stage2_mmu.stage2_tlb.accesses            0                       # DTB accesses
system.cpu.itb.stage2_mmu.stage2_tlb.align_faults            0                       # Number of TLB faults due to alignment restrictions
system.cpu.itb.stage2_mmu.stage2_tlb.domain_faults            0                       # Number of TLB faults due to domain restrictions
system.cpu.itb.stage2_mmu.stage2_tlb.flush_entries            0                       # Number of entries that have been flushed from TLB
system.cpu.itb.stage2_mmu.stage2_tlb.flush_tlb            0                       # Number of times complete TLB was flushed
system.cpu.itb.stage2_mmu.stage2_tlb.flush_tlb_asid            0                       # Number of times TLB was flushed by ASID
system.cpu.itb.stage2_mmu.stage2_tlb.flush_tlb_mva            0                       # Number of times TLB was flushed by MVA
system.cpu.itb.stage2_mmu.stage2_tlb.flush_tlb_mva_asid            0                       # Number of times TLB was flushed by MVA & ASID
system.cpu.itb.stage2_mmu.stage2_tlb.hits            0                       # DTB hits
system.cpu.itb.stage2_mmu.stage2_tlb.inst_accesses            0                       # ITB inst accesses
system.cpu.itb.stage2_mmu.stage2_tlb.inst_hits            0                       # ITB inst hits
system.cpu.itb.stage2_mmu.stage2_tlb.inst_misses            0                       # ITB inst misses
system.cpu.itb.stage2_mmu.stage2_tlb.misses            0                       # DTB misses
system.cpu.itb.stage2_mmu.stage2_tlb.perms_faults            0                       # Number of TLB faults due to permissions restrictions
system.cpu.itb.stage2_mmu.stage2_tlb.prefetch_faults            0                       # Number of TLB faults due to prefetch
system.cpu.itb.stage2_mmu.stage2_tlb.read_accesses            0                       # DTB read accesses
system.cpu.itb.stage2_mmu.stage2_tlb.read_hits            0                       # DTB read hits
system.cpu.itb.stage2_mmu.stage2_tlb.read_misses            0                       # DTB read misses
system.cpu.itb.stage2_mmu.stage2_tlb.walker.walkRequestOrigin_Requested::Data            0                       # Table walker requests started/completed, data/inst
system.cpu.itb.stage2_mmu.stage2_tlb.walker.walkRequestOrigin_Requested::Inst            0                       # Table walker requests started/completed, data/inst
system.cpu.itb.stage2_mmu.stage2_tlb.walker.walkRequestOrigin_Requested::total            0                       # Table walker requests started/completed, data/inst
system.cpu.itb.stage2_mmu.stage2_tlb.walker.walkRequestOrigin_Completed::Data            0                       # Table walker requests started/completed, data/inst
system.cpu.itb.stage2_mmu.stage2_tlb.walker.walkRequestOrigin_Completed::Inst            0                       # Table walker requests started/completed, data/inst
system.cpu.itb.stage2_mmu.stage2_tlb.walker.walkRequestOrigin_Completed::total            0                       # Table walker requests started/completed, data/inst
system.cpu.itb.stage2_mmu.stage2_tlb.walker.walkRequestOrigin::total            0                       # Table walker requests started/completed, data/inst
system.cpu.itb.stage2_mmu.stage2_tlb.walker.walks            0                       # Table walker walks requested
system.cpu.itb.stage2_mmu.stage2_tlb.write_accesses            0                       # DTB write accesses
system.cpu.itb.stage2_mmu.stage2_tlb.write_hits            0                       # DTB write hits
system.cpu.itb.stage2_mmu.stage2_tlb.write_misses            0                       # DTB write misses
system.cpu.itb.walker.walkRequestOrigin_Requested::Data            0                       # Table walker requests started/completed, data/inst
system.cpu.itb.walker.walkRequestOrigin_Requested::Inst            0                       # Table walker requests started/completed, data/inst
system.cpu.itb.walker.walkRequestOrigin_Requested::total            0                       # Table walker requests started/completed, data/inst
system.cpu.itb.walker.walkRequestOrigin_Completed::Data            0                       # Table walker requests started/completed, data/inst
system.cpu.itb.walker.walkRequestOrigin_Completed::Inst            0                       # Table walker requests started/completed, data/inst
system.cpu.itb.walker.walkRequestOrigin_Completed::total            0                       # Table walker requests started/completed, data/inst
system.cpu.itb.walker.walkRequestOrigin::total            0                       # Table walker requests started/completed, data/inst
system.cpu.itb.walker.walks                         0                       # Table walker walks requested
system.cpu.itb.write_accesses                       0                       # DTB write accesses
system.cpu.itb.write_hits                           0                       # DTB write hits
system.cpu.itb.write_misses                         0                       # DTB write misses
system.cpu.numCycles                         22829481                       # number of cpu cycles simulated
system.cpu.numFetchSuspends                         0                       # Number of times Execute suspended instruction fetching
system.cpu.numWorkItemsCompleted                    0                       # number of work items this cpu completed
system.cpu.numWorkItemsStarted                      0                       # number of work items this cpu started
system.cpu.op_class_0::No_OpClass                   0      0.00%      0.00% # Class of committed instruction
system.cpu.op_class_0::IntAlu                 2830172     28.22%     28.22% # Class of committed instruction
system.cpu.op_class_0::IntMult                  20549      0.20%     28.43% # Class of committed instruction
system.cpu.op_class_0::IntDiv                       0      0.00%     28.43% # Class of committed instruction
system.cpu.op_class_0::FloatAdd                     0      0.00%     28.43% # Class of committed instruction
system.cpu.op_class_0::FloatCmp                     0      0.00%     28.43% # Class of committed instruction
system.cpu.op_class_0::FloatCvt                     0      0.00%     28.43% # Class of committed instruction
system.cpu.op_class_0::FloatMult                    0      0.00%     28.43% # Class of committed instruction
system.cpu.op_class_0::FloatMultAcc                 0      0.00%     28.43% # Class of committed instruction
system.cpu.op_class_0::FloatDiv                     0      0.00%     28.43% # Class of committed instruction
system.cpu.op_class_0::FloatMisc                    0      0.00%     28.43% # Class of committed instruction
system.cpu.op_class_0::FloatSqrt                    0      0.00%     28.43% # Class of committed instruction
system.cpu.op_class_0::SimdAdd                      0      0.00%     28.43% # Class of committed instruction
system.cpu.op_class_0::SimdAddAcc                   0      0.00%     28.43% # Class of committed instruction
system.cpu.op_class_0::SimdAlu                      0      0.00%     28.43% # Class of committed instruction
system.cpu.op_class_0::SimdCmp                      0      0.00%     28.43% # Class of committed instruction
system.cpu.op_class_0::SimdCvt                      0      0.00%     28.43% # Class of committed instruction
system.cpu.op_class_0::SimdMisc                     0      0.00%     28.43% # Class of committed instruction
system.cpu.op_class_0::SimdMult                     0      0.00%     28.43% # Class of committed instruction
system.cpu.op_class_0::SimdMultAcc                  0      0.00%     28.43% # Class of committed instruction
system.cpu.op_class_0::SimdShift                    0      0.00%     28.43% # Class of committed instruction
system.cpu.op_class_0::SimdShiftAcc                 0      0.00%     28.43% # Class of committed instruction
system.cpu.op_class_0::SimdDiv                      0      0.00%     28.43% # Class of committed instruction
system.cpu.op_class_0::SimdSqrt                     0      0.00%     28.43% # Class of committed instruction
system.cpu.op_class_0::SimdFloatAdd                 0      0.00%     28.43% # Class of committed instruction
system.cpu.op_class_0::SimdFloatAlu                 0      0.00%     28.43% # Class of committed instruction
system.cpu.op_class_0::SimdFloatCmp                 0      0.00%     28.43% # Class of committed instruction
system.cpu.op_class_0::SimdFloatCvt                 0      0.00%     28.43% # Class of committed instruction
system.cpu.op_class_0::SimdFloatDiv                 0      0.00%     28.43% # Class of committed instruction
system.cpu.op_class_0::SimdFloatMisc               18      0.00%     28.43% # Class of committed instruction
system.cpu.op_class_0::SimdFloatMult                0      0.00%     28.43% # Class of committed instruction
system.cpu.op_class_0::SimdFloatMultAcc             0      0.00%     28.43% # Class of committed instruction
system.cpu.op_class_0::SimdFloatSqrt                0      0.00%     28.43% # Class of committed instruction
system.cpu.op_class_0::SimdReduceAdd                0      0.00%     28.43% # Class of committed instruction
system.cpu.op_class_0::SimdReduceAlu                0      0.00%     28.43% # Class of committed instruction
system.cpu.op_class_0::SimdReduceCmp                0      0.00%     28.43% # Class of committed instruction
system.cpu.op_class_0::SimdFloatReduceAdd            0      0.00%     28.43% # Class of committed instruction
system.cpu.op_class_0::SimdFloatReduceCmp            0      0.00%     28.43% # Class of committed instruction
system.cpu.op_class_0::SimdAes                      0      0.00%     28.43% # Class of committed instruction
system.cpu.op_class_0::SimdAesMix                   0      0.00%     28.43% # Class of committed instruction
system.cpu.op_class_0::SimdSha1Hash                 0      0.00%     28.43% # Class of committed instruction
system.cpu.op_class_0::SimdSha1Hash2                0      0.00%     28.43% # Class of committed instruction
system.cpu.op_class_0::SimdSha256Hash               0      0.00%     28.43% # Class of committed instruction
system.cpu.op_class_0::SimdSha256Hash2              0      0.00%     28.43% # Class of committed instruction
system.cpu.op_class_0::SimdShaSigma2                0      0.00%     28.43% # Class of committed instruction
system.cpu.op_class_0::SimdShaSigma3                0      0.00%     28.43% # Class of committed instruction
system.cpu.op_class_0::SimdPredAlu                  0      0.00%     28.43% # Class of committed instruction
system.cpu.op_class_0::MemRead                5721878     57.06%     85.48% # Class of committed instruction
system.cpu.op_class_0::MemWrite               1455694     14.52%    100.00% # Class of committed instruction
system.cpu.op_class_0::FloatMemRead                 0      0.00%    100.00% # Class of committed instruction
system.cpu.op_class_0::FloatMemWrite                0      0.00%    100.00% # Class of committed instruction
system.cpu.op_class_0::IprAccess                    0      0.00%    100.00% # Class of committed instruction
system.cpu.op_class_0::InstPrefetch                 0      0.00%    100.00% # Class of committed instruction
system.cpu.op_class_0::total                 10028311                       # Class of committed instruction
system.cpu.tickCycles                        14493321                       # Number of cycles that the object actually ticked
system.cpu.workload.numSyscalls                    84                       # Number of system calls
system.membus.snoop_filter.hit_multi_requests            0                       # Number of requests hitting in the snoop filter with multiple (>1) holders of the requested data.
system.membus.snoop_filter.hit_multi_snoops            0                       # Number of snoops hitting in the snoop filter with multiple (>1) holders of the requested data.
system.membus.snoop_filter.hit_single_requests        85768                       # Number of requests hitting in the snoop filter with a single holder of the requested data.
system.membus.snoop_filter.hit_single_snoops            0                       # Number of snoops hitting in the snoop filter with a single holder of the requested data.
system.membus.snoop_filter.tot_requests        204534                       # Total number of requests made to the snoop filter.
system.membus.snoop_filter.tot_snoops               0                       # Total number of snoops made to the snoop filter.
system.tol2bus.snoop_filter.hit_multi_requests          278                       # Number of requests hitting in the snoop filter with multiple (>1) holders of the requested data.
system.tol2bus.snoop_filter.hit_multi_snoops            0                       # Number of snoops hitting in the snoop filter with multiple (>1) holders of the requested data.
system.tol2bus.snoop_filter.hit_single_requests       122019                       # Number of requests hitting in the snoop filter with a single holder of the requested data.
system.tol2bus.snoop_filter.hit_single_snoops          310                       # Number of snoops hitting in the snoop filter with a single holder of the requested data.
system.tol2bus.snoop_filter.tot_requests       244637                       # Total number of requests made to the snoop filter.
system.tol2bus.snoop_filter.tot_snoops            310                       # Total number of snoops made to the snoop filter.
system.membus.pwrStateResidencyTicks::UNDEFINED  22829481000                       # Cumulative time (in ticks) in various power states
system.membus.trans_dist::ReadResp              48536                       # Transaction distribution
system.membus.trans_dist::WritebackDirty        57743                       # Transaction distribution
system.membus.trans_dist::CleanEvict            28020                       # Transaction distribution
system.membus.trans_dist::ReadExReq             70235                       # Transaction distribution
system.membus.trans_dist::ReadExResp            70235                       # Transaction distribution
system.membus.trans_dist::ReadSharedReq         48536                       # Transaction distribution
system.membus.pkt_count_system.l2.mem_side::system.mem_ctrls.port       323305                       # Packet count per connected master and slave (bytes)
system.membus.pkt_count::total                 323305                       # Packet count per connected master and slave (bytes)
system.membus.pkt_size_system.l2.mem_side::system.mem_ctrls.port     11296896                       # Cumulative packet size per connected master and slave (bytes)
system.membus.pkt_size::total                11296896                       # Cumulative packet size per connected master and slave (bytes)
system.membus.snoops                                0                       # Total snoops (count)
system.membus.snoopTraffic                          0                       # Total snoop traffic (bytes)
system.membus.snoop_fanout::samples            118771                       # Request fanout histogram
system.membus.snoop_fanout::mean                    0                       # Request fanout histogram
system.membus.snoop_fanout::stdev                   0                       # Request fanout histogram
system.membus.snoop_fanout::underflows              0      0.00%      0.00% # Request fanout histogram
system.membus.snoop_fanout::0                  118771    100.00%    100.00% # Request fanout histogram
system.membus.snoop_fanout::1                       0      0.00%    100.00% # Request fanout histogram
system.membus.snoop_fanout::overflows               0      0.00%    100.00% # Request fanout histogram
system.membus.snoop_fanout::min_value               0                       # Request fanout histogram
system.membus.snoop_fanout::max_value               0                       # Request fanout histogram
system.membus.snoop_fanout::total              118771                       # Request fanout histogram
system.membus.respLayer1.occupancy          638106750                       # Layer occupancy (ticks)
system.membus.respLayer1.utilization              2.8                       # Layer utilization (%)
system.membus.reqLayer0.occupancy           435506000                       # Layer occupancy (ticks)
system.membus.reqLayer0.utilization               1.9                       # Layer utilization (%)
system.tol2bus.pwrStateResidencyTicks::UNDEFINED  22829481000                       # Cumulative time (in ticks) in various power states
system.tol2bus.trans_dist::ReadResp             51733                       # Transaction distribution
system.tol2bus.trans_dist::WritebackDirty       129871                       # Transaction distribution
system.tol2bus.trans_dist::WritebackClean          255                       # Transaction distribution
system.tol2bus.trans_dist::CleanEvict           77961                       # Transaction distribution
system.tol2bus.trans_dist::ReadExReq            70890                       # Transaction distribution
system.tol2bus.trans_dist::ReadExResp           70890                       # Transaction distribution
system.tol2bus.trans_dist::ReadCleanReq           608                       # Transaction distribution
system.tol2bus.trans_dist::ReadSharedReq        51125                       # Transaction distribution
system.tol2bus.pkt_count_system.cpu.icache.mem_side::system.l2.cpu_side         1471                       # Packet count per connected master and slave (bytes)
system.tol2bus.pkt_count_system.cpu.dcache.mem_side::system.l2.cpu_side       365789                       # Packet count per connected master and slave (bytes)
system.tol2bus.pkt_count::total                367260                       # Packet count per connected master and slave (bytes)
system.tol2bus.pkt_size_system.cpu.icache.mem_side::system.l2.cpu_side        55232                       # Cumulative packet size per connected master and slave (bytes)
system.tol2bus.pkt_size_system.cpu.dcache.mem_side::system.l2.cpu_side     12425152                       # Cumulative packet size per connected master and slave (bytes)
system.tol2bus.pkt_size::total               12480384                       # Cumulative packet size per connected master and slave (bytes)
system.tol2bus.snoops                           86073                       # Total snoops (count)
system.tol2bus.snoopTraffic                   3695552                       # Total snoop traffic (bytes)
system.tol2bus.snoop_fanout::samples           208696                       # Request fanout histogram
system.tol2bus.snoop_fanout::mean            0.002841                       # Request fanout histogram
system.tol2bus.snoop_fanout::stdev           0.053230                       # Request fanout histogram
system.tol2bus.snoop_fanout::underflows             0      0.00%      0.00% # Request fanout histogram
system.tol2bus.snoop_fanout::0                 208103     99.72%     99.72% # Request fanout histogram
system.tol2bus.snoop_fanout::1                    593      0.28%    100.00% # Request fanout histogram
system.tol2bus.snoop_fanout::2                      0      0.00%    100.00% # Request fanout histogram
system.tol2bus.snoop_fanout::overflows              0      0.00%    100.00% # Request fanout histogram
system.tol2bus.snoop_fanout::min_value              0                       # Request fanout histogram
system.tol2bus.snoop_fanout::max_value              1                       # Request fanout histogram
system.tol2bus.snoop_fanout::total             208696                       # Request fanout histogram
system.tol2bus.reqLayer0.occupancy          389403000                       # Layer occupancy (ticks)
system.tol2bus.reqLayer0.utilization              1.7                       # Layer utilization (%)
system.tol2bus.respLayer1.occupancy         366048996                       # Layer occupancy (ticks)
system.tol2bus.respLayer1.utilization             1.6                       # Layer utilization (%)
system.tol2bus.respLayer0.occupancy           1824000                       # Layer occupancy (ticks)
system.tol2bus.respLayer0.utilization             0.0                       # Layer utilization (%)
system.voltage_domain.voltage                       1                       # Voltage in Volts
system.clk_domain.clock                          1000                       # Clock period in ticks
system.l2.pwrStateResidencyTicks::UNDEFINED  22829481000                       # Cumulative time (in ticks) in various power states
system.l2.demand_hits::.cpu.inst                   79                       # number of demand (read+write) hits
system.l2.demand_hits::.cpu.data                 3769                       # number of demand (read+write) hits
system.l2.demand_hits::total                     3848                       # number of demand (read+write) hits
system.l2.overall_hits::.cpu.inst                  79                       # number of overall hits
system.l2.overall_hits::.cpu.data                3769                       # number of overall hits
system.l2.overall_hits::total                    3848                       # number of overall hits
system.l2.demand_misses::.cpu.inst                529                       # number of demand (read+write) misses
system.l2.demand_misses::.cpu.data             118246                       # number of demand (read+write) misses
system.l2.demand_misses::total                 118775                       # number of demand (read+write) misses
system.l2.overall_misses::.cpu.inst               529                       # number of overall misses
system.l2.overall_misses::.cpu.data            118246                       # number of overall misses
system.l2.overall_misses::total                118775                       # number of overall misses
system.l2.demand_miss_latency::.cpu.inst     51643000                       # number of demand (read+write) miss cycles
system.l2.demand_miss_latency::.cpu.data  12019538000                       # number of demand (read+write) miss cycles
system.l2.demand_miss_latency::total      12071181000                       # number of demand (read+write) miss cycles
system.l2.overall_miss_latency::.cpu.inst     51643000                       # number of overall miss cycles
system.l2.overall_miss_latency::.cpu.data  12019538000                       # number of overall miss cycles
system.l2.overall_miss_latency::total     12071181000                       # number of overall miss cycles
system.l2.demand_accesses::.cpu.inst              608                       # number of demand (read+write) accesses
system.l2.demand_accesses::.cpu.data           122015                       # number of demand (read+write) accesses
system.l2.demand_accesses::total               122623                       # number of demand (read+write) accesses
system.l2.overall_accesses::.cpu.inst             608                       # number of overall (read+write) accesses
system.l2.overall_accesses::.cpu.data          122015                       # number of overall (read+write) accesses
system.l2.overall_accesses::total              122623                       # number of overall (read+write) accesses
system.l2.demand_miss_rate::.cpu.inst        0.870066                       # miss rate for demand accesses
system.l2.demand_miss_rate::.cpu.data        0.969110                       # miss rate for demand accesses
system.l2.demand_miss_rate::total            0.968619                       # miss rate for demand accesses
system.l2.overall_miss_rate::.cpu.inst       0.870066                       # miss rate for overall accesses
system.l2.overall_miss_rate::.cpu.data       0.969110                       # miss rate for overall accesses
system.l2.overall_miss_rate::total           0.968619                       # miss rate for overall accesses
system.l2.demand_avg_miss_latency::.cpu.inst 97623.818526                       # average overall miss latency
system.l2.demand_avg_miss_latency::.cpu.data 101648.580079                       # average overall miss latency
system.l2.demand_avg_miss_latency::total 101630.654599                       # average overall miss latency
system.l2.overall_avg_miss_latency::.cpu.inst 97623.818526                       # average overall miss latency
system.l2.overall_avg_miss_latency::.cpu.data 101648.580079                       # average overall miss latency
system.l2.overall_avg_miss_latency::total 101630.654599                       # average overall miss latency
system.l2.blocked_cycles::no_mshrs                  0                       # number of cycles access was blocked
system.l2.blocked_cycles::no_targets                0                       # number of cycles access was blocked
system.l2.blocked::no_mshrs                         0                       # number of cycles access was blocked
system.l2.blocked::no_targets                       0                       # number of cycles access was blocked
system.l2.avg_blocked_cycles::no_mshrs            nan                       # average number of cycles each access was blocked
system.l2.avg_blocked_cycles::no_targets          nan                       # average number of cycles each access was blocked
system.l2.writebacks::.writebacks               57743                       # number of writebacks
system.l2.writebacks::total                     57743                       # number of writebacks
system.l2.demand_mshr_hits::.cpu.data               4                       # number of demand (read+write) MSHR hits
system.l2.demand_mshr_hits::total                   4                       # number of demand (read+write) MSHR hits
system.l2.overall_mshr_hits::.cpu.data              4                       # number of overall MSHR hits
system.l2.overall_mshr_hits::total                  4                       # number of overall MSHR hits
system.l2.demand_mshr_misses::.cpu.inst           529                       # number of demand (read+write) MSHR misses
system.l2.demand_mshr_misses::.cpu.data        118242                       # number of demand (read+write) MSHR misses
system.l2.demand_mshr_misses::total            118771                       # number of demand (read+write) MSHR misses
system.l2.overall_mshr_misses::.cpu.inst          529                       # number of overall MSHR misses
system.l2.overall_mshr_misses::.cpu.data       118242                       # number of overall MSHR misses
system.l2.overall_mshr_misses::total           118771                       # number of overall MSHR misses
system.l2.demand_mshr_miss_latency::.cpu.inst     41063000                       # number of demand (read+write) MSHR miss cycles
system.l2.demand_mshr_miss_latency::.cpu.data   9654408000                       # number of demand (read+write) MSHR miss cycles
system.l2.demand_mshr_miss_latency::total   9695471000                       # number of demand (read+write) MSHR miss cycles
system.l2.overall_mshr_miss_latency::.cpu.inst     41063000                       # number of overall MSHR miss cycles
system.l2.overall_mshr_miss_latency::.cpu.data   9654408000                       # number of overall MSHR miss cycles
system.l2.overall_mshr_miss_latency::total   9695471000                       # number of overall MSHR miss cycles
system.l2.demand_mshr_miss_rate::.cpu.inst     0.870066                       # mshr miss rate for demand accesses
system.l2.demand_mshr_miss_rate::.cpu.data     0.969078                       # mshr miss rate for demand accesses
system.l2.demand_mshr_miss_rate::total       0.968587                       # mshr miss rate for demand accesses
system.l2.overall_mshr_miss_rate::.cpu.inst     0.870066                       # mshr miss rate for overall accesses
system.l2.overall_mshr_miss_rate::.cpu.data     0.969078                       # mshr miss rate for overall accesses
system.l2.overall_mshr_miss_rate::total      0.968587                       # mshr miss rate for overall accesses
system.l2.demand_avg_mshr_miss_latency::.cpu.inst 77623.818526                       # average overall mshr miss latency
system.l2.demand_avg_mshr_miss_latency::.cpu.data 81649.566144                       # average overall mshr miss latency
system.l2.demand_avg_mshr_miss_latency::total 81631.635669                       # average overall mshr miss latency
system.l2.overall_avg_mshr_miss_latency::.cpu.inst 77623.818526                       # average overall mshr miss latency
system.l2.overall_avg_mshr_miss_latency::.cpu.data 81649.566144                       # average overall mshr miss latency
system.l2.overall_avg_mshr_miss_latency::total 81631.635669                       # average overall mshr miss latency
system.l2.replacements                          86073                       # number of replacements
system.l2.WritebackDirty_hits::.writebacks        72128                       # number of WritebackDirty hits
system.l2.WritebackDirty_hits::total            72128                       # number of WritebackDirty hits
system.l2.WritebackDirty_accesses::.writebacks        72128                       # number of WritebackDirty accesses(hits+misses)
system.l2.WritebackDirty_accesses::total        72128                       # number of WritebackDirty accesses(hits+misses)
system.l2.WritebackClean_hits::.writebacks          246                       # number of WritebackClean hits
system.l2.WritebackClean_hits::total              246                       # number of WritebackClean hits
system.l2.WritebackClean_accesses::.writebacks          246                       # number of WritebackClean accesses(hits+misses)
system.l2.WritebackClean_accesses::total          246                       # number of WritebackClean accesses(hits+misses)
system.l2.ReadExReq_hits::.cpu.data               655                       # number of ReadExReq hits
system.l2.ReadExReq_hits::total                   655                       # number of ReadExReq hits
system.l2.ReadExReq_misses::.cpu.data           70235                       # number of ReadExReq misses
system.l2.ReadExReq_misses::total               70235                       # number of ReadExReq misses
system.l2.ReadExReq_miss_latency::.cpu.data   7348681000                       # number of ReadExReq miss cycles
system.l2.ReadExReq_miss_latency::total    7348681000                       # number of ReadExReq miss cycles
system.l2.ReadExReq_accesses::.cpu.data         70890                       # number of ReadExReq accesses(hits+misses)
system.l2.ReadExReq_accesses::total             70890                       # number of ReadExReq accesses(hits+misses)
system.l2.ReadExReq_miss_rate::.cpu.data     0.990760                       # miss rate for ReadExReq accesses
system.l2.ReadExReq_miss_rate::total         0.990760                       # miss rate for ReadExReq accesses
system.l2.ReadExReq_avg_miss_latency::.cpu.data 104629.899623                       # average ReadExReq miss latency
system.l2.ReadExReq_avg_miss_latency::total 104629.899623                       # average ReadExReq miss latency
system.l2.ReadExReq_mshr_misses::.cpu.data        70235                       # number of ReadExReq MSHR misses
system.l2.ReadExReq_mshr_misses::total          70235                       # number of ReadExReq MSHR misses
system.l2.ReadExReq_mshr_miss_latency::.cpu.data   5943981000                       # number of ReadExReq MSHR miss cycles
system.l2.ReadExReq_mshr_miss_latency::total   5943981000                       # number of ReadExReq MSHR miss cycles
system.l2.ReadExReq_mshr_miss_rate::.cpu.data     0.990760                       # mshr miss rate for ReadExReq accesses
system.l2.ReadExReq_mshr_miss_rate::total     0.990760                       # mshr miss rate for ReadExReq accesses
system.l2.ReadExReq_avg_mshr_miss_latency::.cpu.data 84629.899623                       # average ReadExReq mshr miss latency
system.l2.ReadExReq_avg_mshr_miss_latency::total 84629.899623                       # average ReadExReq mshr miss latency
system.l2.ReadCleanReq_hits::.cpu.inst             79                       # number of ReadCleanReq hits
system.l2.ReadCleanReq_hits::total                 79                       # number of ReadCleanReq hits
system.l2.ReadCleanReq_misses::.cpu.inst          529                       # number of ReadCleanReq misses
system.l2.ReadCleanReq_misses::total              529                       # number of ReadCleanReq misses
system.l2.ReadCleanReq_miss_latency::.cpu.inst     51643000                       # number of ReadCleanReq miss cycles
system.l2.ReadCleanReq_miss_latency::total     51643000                       # number of ReadCleanReq miss cycles
system.l2.ReadCleanReq_accesses::.cpu.inst          608                       # number of ReadCleanReq accesses(hits+misses)
system.l2.ReadCleanReq_accesses::total            608                       # number of ReadCleanReq accesses(hits+misses)
system.l2.ReadCleanReq_miss_rate::.cpu.inst     0.870066                       # miss rate for ReadCleanReq accesses
system.l2.ReadCleanReq_miss_rate::total      0.870066                       # miss rate for ReadCleanReq accesses
system.l2.ReadCleanReq_avg_miss_latency::.cpu.inst 97623.818526                       # average ReadCleanReq miss latency
system.l2.ReadCleanReq_avg_miss_latency::total 97623.818526                       # average ReadCleanReq miss latency
system.l2.ReadCleanReq_mshr_misses::.cpu.inst          529                       # number of ReadCleanReq MSHR misses
system.l2.ReadCleanReq_mshr_misses::total          529                       # number of ReadCleanReq MSHR misses
system.l2.ReadCleanReq_mshr_miss_latency::.cpu.inst     41063000                       # number of ReadCleanReq MSHR miss cycles
system.l2.ReadCleanReq_mshr_miss_latency::total     41063000                       # number of ReadCleanReq MSHR miss cycles
system.l2.ReadCleanReq_mshr_miss_rate::.cpu.inst     0.870066                       # mshr miss rate for ReadCleanReq accesses
system.l2.ReadCleanReq_mshr_miss_rate::total     0.870066                       # mshr miss rate for ReadCleanReq accesses
system.l2.ReadCleanReq_avg_mshr_miss_latency::.cpu.inst 77623.818526                       # average ReadCleanReq mshr miss latency
system.l2.ReadCleanReq_avg_mshr_miss_latency::total 77623.818526                       # average ReadCleanReq mshr miss latency
system.l2.ReadSharedReq_hits::.cpu.data          3114                       # number of ReadSharedReq hits
system.l2.ReadSharedReq_hits::total              3114                       # number of ReadSharedReq hits
system.l2.ReadSharedReq_misses::.cpu.data        48011                       # number of ReadSharedReq misses
system.l2.ReadSharedReq_misses::total           48011                       # number of ReadSharedReq misses
system.l2.ReadSharedReq_miss_latency::.cpu.data   4670857000                       # number of ReadSharedReq miss cycles
system.l2.ReadSharedReq_miss_latency::total   4670857000                       # number of ReadSharedReq miss cycles
system.l2.ReadSharedReq_accesses::.cpu.data        51125                       # number of ReadSharedReq accesses(hits+misses)
system.l2.ReadSharedReq_accesses::total         51125                       # number of ReadSharedReq accesses(hits+misses)
system.l2.ReadSharedReq_miss_rate::.cpu.data     0.939090                       # miss rate for ReadSharedReq accesses
system.l2.ReadSharedReq_miss_rate::total     0.939090                       # miss rate for ReadSharedReq accesses
system.l2.ReadSharedReq_avg_miss_latency::.cpu.data 97287.225844                       # average ReadSharedReq miss latency
system.l2.ReadSharedReq_avg_miss_latency::total 97287.225844                       # average ReadSharedReq miss latency
system.l2.ReadSharedReq_mshr_hits::.cpu.data            4                       # number of ReadSharedReq MSHR hits
system.l2.ReadSharedReq_mshr_hits::total            4                       # number of ReadSharedReq MSHR hits
system.l2.ReadSharedReq_mshr_misses::.cpu.data        48007                       # number of ReadSharedReq MSHR misses
system.l2.ReadSharedReq_mshr_misses::total        48007                       # number of ReadSharedReq MSHR misses
system.l2.ReadSharedReq_mshr_miss_latency::.cpu.data   3710427000                       # number of ReadSharedReq MSHR miss cycles
system.l2.ReadSharedReq_mshr_miss_latency::total   3710427000                       # number of ReadSharedReq MSHR miss cycles
system.l2.ReadSharedReq_mshr_miss_rate::.cpu.data     0.939012                       # mshr miss rate for ReadSharedReq accesses
system.l2.ReadSharedReq_mshr_miss_rate::total     0.939012                       # mshr miss rate for ReadSharedReq accesses
system.l2.ReadSharedReq_avg_mshr_miss_latency::.cpu.data 77289.291145                       # average ReadSharedReq mshr miss latency
system.l2.ReadSharedReq_avg_mshr_miss_latency::total 77289.291145                       # average ReadSharedReq mshr miss latency
system.l2.tags.pwrStateResidencyTicks::UNDEFINED  22829481000                       # Cumulative time (in ticks) in various power states
system.l2.tags.tagsinuse                 28459.929695                       # Cycle average of tags in use
system.l2.tags.total_refs                      244355                       # Total number of references to valid blocks.
system.l2.tags.sampled_refs                    118841                       # Sample count of references to valid blocks.
system.l2.tags.avg_refs                      2.056151                       # Average number of references to valid blocks.
system.l2.tags.warmup_cycle                     87000                       # Cycle when the warmup percentage was hit.
system.l2.tags.occ_blocks::.writebacks      42.533006                       # Average occupied blocks per requestor
system.l2.tags.occ_blocks::.cpu.inst       129.221091                       # Average occupied blocks per requestor
system.l2.tags.occ_blocks::.cpu.data     28288.175598                       # Average occupied blocks per requestor
system.l2.tags.occ_percent::.writebacks      0.001298                       # Average percentage of cache occupancy
system.l2.tags.occ_percent::.cpu.inst        0.003944                       # Average percentage of cache occupancy
system.l2.tags.occ_percent::.cpu.data        0.863287                       # Average percentage of cache occupancy
system.l2.tags.occ_percent::total            0.868528                       # Average percentage of cache occupancy
system.l2.tags.occ_task_id_blocks::1024         32768                       # Occupied blocks per task id
system.l2.tags.age_task_id_blocks_1024::0            1                       # Occupied blocks per task id
system.l2.tags.age_task_id_blocks_1024::1            9                       # Occupied blocks per task id
system.l2.tags.age_task_id_blocks_1024::2          166                       # Occupied blocks per task id
system.l2.tags.age_task_id_blocks_1024::3         1810                       # Occupied blocks per task id
system.l2.tags.age_task_id_blocks_1024::4        30782                       # Occupied blocks per task id
system.l2.tags.occ_task_id_percent::1024            1                       # Percentage of cache occupancy per task id
system.l2.tags.tag_accesses                   2073713                       # Number of tag accesses
system.l2.tags.data_accesses                  2073713                       # Number of data accesses
system.cpu_voltage_domain.voltage                   1                       # Voltage in Volts
system.mem_ctrls.pwrStateResidencyTicks::UNDEFINED  22829481000                       # Cumulative time (in ticks) in various power states
system.mem_ctrls.bytes_read::.cpu.inst          33856                       # Number of bytes read from this memory
system.mem_ctrls.bytes_read::.cpu.data        7567488                       # Number of bytes read from this memory
system.mem_ctrls.bytes_read::total            7601344                       # Number of bytes read from this memory
system.mem_ctrls.bytes_inst_read::.cpu.inst        33856                       # Number of instructions bytes read from this memory
system.mem_ctrls.bytes_inst_read::total         33856                       # Number of instructions bytes read from this memory
system.mem_ctrls.bytes_written::.writebacks      3695552                       # Number of bytes written to this memory
system.mem_ctrls.bytes_written::total         3695552                       # Number of bytes written to this memory
system.mem_ctrls.num_reads::.cpu.inst             529                       # Number of read requests responded to by this memory
system.mem_ctrls.num_reads::.cpu.data          118242                       # Number of read requests responded to by this memory
system.mem_ctrls.num_reads::total              118771                       # Number of read requests responded to by this memory
system.mem_ctrls.num_writes::.writebacks        57743                       # Number of write requests responded to by this memory
system.mem_ctrls.num_writes::total              57743                       # Number of write requests responded to by this memory
system.mem_ctrls.bw_read::.cpu.inst           1482995                       # Total read bandwidth from this memory (bytes/s)
system.mem_ctrls.bw_read::.cpu.data         331478758                       # Total read bandwidth from this memory (bytes/s)
system.mem_ctrls.bw_read::total             332961752                       # Total read bandwidth from this memory (bytes/s)
system.mem_ctrls.bw_inst_read::.cpu.inst      1482995                       # Instruction read bandwidth from this memory (bytes/s)
system.mem_ctrls.bw_inst_read::total          1482995                       # Instruction read bandwidth from this memory (bytes/s)
system.mem_ctrls.bw_write::.writebacks      161876304                       # Write bandwidth from this memory (bytes/s)
system.mem_ctrls.bw_write::total            161876304                       # Write bandwidth from this memory (bytes/s)
system.mem_ctrls.bw_total::.writebacks      161876304                       # Total bandwidth to/from this memory (bytes/s)
system.mem_ctrls.bw_total::.cpu.inst          1482995                       # Total bandwidth to/from this memory (bytes/s)
system.mem_ctrls.bw_total::.cpu.data        331478758                       # Total bandwidth to/from this memory (bytes/s)
system.mem_ctrls.bw_total::total            494838056                       # Total bandwidth to/from this memory (bytes/s)
system.mem_ctrls.avgPriority_.writebacks::samples     57743.00                       # Average QoS priority value for accepted requests
system.mem_ctrls.avgPriority_.cpu.inst::samples       529.00                       # Average QoS priority value for accepted requests
system.mem_ctrls.avgPriority_.cpu.data::samples    118242.00                       # Average QoS priority value for accepted requests
system.mem_ctrls.priorityMinLatency      0.000000018750                       # per QoS priority minimum request to response latency (s)
system.mem_ctrls.priorityMaxLatency      0.003042936500                       # per QoS priority maximum request to response latency (s)
system.mem_ctrls.numReadWriteTurnArounds         3592                       # Number of turnarounds from READ to WRITE
system.mem_ctrls.numWriteReadTurnArounds         3592                       # Number of turnarounds from WRITE to READ
system.mem_ctrls.numStayReadState              294068                       # Number of times bus staying in READ state
system.mem_ctrls.numStayWriteState              54155                       # Number of times bus staying in WRITE state
system.mem_ctrls.readReqs                      118771                       # Number of read requests accepted
system.mem_ctrls.writeReqs                      57743                       # Number of write requests accepted
system.mem_ctrls.readBursts                    118771                       # Number of DRAM read bursts, including those serviced by the write queue
system.mem_ctrls.writeBursts                    57743                       # Number of DRAM write bursts, including those merged in the write queue
system.mem_ctrls.servicedByWrQ                      0                       # Number of DRAM read bursts serviced by the write queue
system.mem_ctrls.mergedWrBursts                     0                       # Number of DRAM write bursts merged with an existing one
system.mem_ctrls.neitherReadNorWriteReqs            0                       # Number of requests that are neither read nor write
system.mem_ctrls.perBankRdBursts::0              7604                       # Per bank write bursts
system.mem_ctrls.perBankRdBursts::1              7489                       # Per bank write bursts
system.mem_ctrls.perBankRdBursts::2              7493                       # Per bank write bursts
system.mem_ctrls.perBankRdBursts::3              7392                       # Per bank write bursts
system.mem_ctrls.perBankRdBursts::4              7476                       # Per bank write bursts
system.mem_ctrls.perBankRdBursts::5              7405                       # Per bank write bursts
system.mem_ctrls.perBankRdBursts::6              7386                       # Per bank write bursts
system.mem_ctrls.perBankRdBursts::7              7579                       # Per bank write bursts
system.mem_ctrls.perBankRdBursts::8              7390                       # Per bank write bursts
system.mem_ctrls.perBankRdBursts::9              7318                       # Per bank write bursts
system.mem_ctrls.perBankRdBursts::10             7362                       # Per bank write bursts
system.mem_ctrls.perBankRdBursts::11             7321                       # Per bank write bursts
system.mem_ctrls.perBankRdBursts::12             7420                       # Per bank write bursts
system.mem_ctrls.perBankRdBursts::13             7383                       # Per bank write bursts
system.mem_ctrls.perBankRdBursts::14             7336                       # Per bank write bursts
system.mem_ctrls.perBankRdBursts::15             7417                       # Per bank write bursts
system.mem_ctrls.perBankWrBursts::0              3684                       # Per bank write bursts
system.mem_ctrls.perBankWrBursts::1              3663                       # Per bank write bursts
system.mem_ctrls.perBankWrBursts::2              3691                       # Per bank write bursts
system.mem_ctrls.perBankWrBursts::3              3655                       # Per bank write bursts
system.mem_ctrls.perBankWrBursts::4              3659                       # Per bank write bursts
system.mem_ctrls.perBankWrBursts::5              3640                       # Per bank write bursts
system.mem_ctrls.perBankWrBursts::6              3603                       # Per bank write bursts
system.mem_ctrls.perBankWrBursts::7              3618                       # Per bank write bursts
system.mem_ctrls.perBankWrBursts::8              3589                       # Per bank write bursts
system.mem_ctrls.perBankWrBursts::9              3545                       # Per bank write bursts
system.mem_ctrls.perBankWrBursts::10             3581                       # Per bank write bursts
system.mem_ctrls.perBankWrBursts::11             3563                       # Per bank write bursts
system.mem_ctrls.perBankWrBursts::12             3581                       # Per bank write bursts
system.mem_ctrls.perBankWrBursts::13             3545                       # Per bank write bursts
system.mem_ctrls.perBankWrBursts::14             3533                       # Per bank write bursts
system.mem_ctrls.perBankWrBursts::15             3566                       # Per bank write bursts
system.mem_ctrls.avgRdQLen                       1.26                       # Average read queue length when enqueuing
system.mem_ctrls.avgWrQLen                      24.74                       # Average write queue length when enqueuing
system.mem_ctrls.totQLat                   1364287000                       # Total ticks spent queuing
system.mem_ctrls.totBusLat                  593855000                       # Total ticks spent in databus transfers
system.mem_ctrls.totMemAccLat              3591243250                       # Total ticks spent from burst creation until serviced by the DRAM
system.mem_ctrls.avgQLat                     11486.70                       # Average queueing delay per DRAM burst
system.mem_ctrls.avgBusLat                    5000.00                       # Average bus latency per DRAM burst
system.mem_ctrls.avgMemAccLat                30236.70                       # Average memory access latency per DRAM burst
system.mem_ctrls.numRdRetry                         0                       # Number of times read queue was full causing retry
system.mem_ctrls.numWrRetry                         0                       # Number of times write queue was full causing retry
system.mem_ctrls.readRowHits                   105508                       # Number of row buffer hits during reads
system.mem_ctrls.writeRowHits                   49967                       # Number of row buffer hits during writes
system.mem_ctrls.readRowHitRate                 88.83                       # Row buffer hit rate for reads
system.mem_ctrls.writeRowHitRate                86.53                       # Row buffer hit rate for writes
system.mem_ctrls.readPktSize::0                     0                       # Read request sizes (log2)
system.mem_ctrls.readPktSize::1                     0                       # Read request sizes (log2)
system.mem_ctrls.readPktSize::2                     0                       # Read request sizes (log2)
system.mem_ctrls.readPktSize::3                     0                       # Read request sizes (log2)
system.mem_ctrls.readPktSize::4                     0                       # Read request sizes (log2)
system.mem_ctrls.readPktSize::5                     0                       # Read request sizes (log2)
system.mem_ctrls.readPktSize::6                118771                       # Read request sizes (log2)
system.mem_ctrls.writePktSize::0                    0                       # Write request sizes (log2)
system.mem_ctrls.writePktSize::1                    0                       # Write request sizes (log2)
system.mem_ctrls.writePktSize::2                    0                       # Write request sizes (log2)
system.mem_ctrls.writePktSize::3                    0                       # Write request sizes (log2)
system.mem_ctrls.writePktSize::4                    0                       # Write request sizes (log2)
system.mem_ctrls.writePktSize::5                    0                       # Write request sizes (log2)
system.mem_ctrls.writePktSize::6                57743                       # Write request sizes (log2)
system.mem_ctrls.rdQLenPdf::0                   74742                       # What read queue length does an incoming req see
system.mem_ctrls.rdQLenPdf::1                   43935                       # What read queue length does an incoming req see
system.mem_ctrls.rdQLenPdf::2                      58                       # What read queue length does an incoming req see
system.mem_ctrls.rdQLenPdf::3                      35                       # What read queue length does an incoming req see
system.mem_ctrls.rdQLenPdf::4                       1                       # What read queue length does an incoming req see
system.mem_ctrls.rdQLenPdf::5                       0                       # What read queue length does an incoming req see
system.mem_ctrls.rdQLenPdf::6                       0                       # What read queue length does an incoming req see
system.mem_ctrls.rdQLenPdf::7                       0                       # What read queue length does an incoming req see
system.mem_ctrls.rdQLenPdf::8                       0                       # What read queue length does an incoming req see
system.mem_ctrls.rdQLenPdf::9                       0                       # What read queue length does an incoming req see
system.mem_ctrls.rdQLenPdf::10                      0                       # What read queue length does an incoming req see
system.mem_ctrls.rdQLenPdf::11                      0                       # What read queue length does an incoming req see
system.mem_ctrls.rdQLenPdf::12                      0                       # What read queue length does an incoming req see
system.mem_ctrls.rdQLenPdf::13                      0                       # What read queue length does an incoming req see
system.mem_ctrls.rdQLenPdf::14                      0                       # What read queue length does an incoming req see
system.mem_ctrls.rdQLenPdf::15                      0                       # What read queue length does an incoming req see
system.mem_ctrls.rdQLenPdf::16                      0                       # What read queue length does an incoming req see
system.mem_ctrls.rdQLenPdf::17                      0                       # What read queue length does an incoming req see
system.mem_ctrls.rdQLenPdf::18                      0                       # What read queue length does an incoming req see
system.mem_ctrls.rdQLenPdf::19                      0                       # What read queue length does an incoming req see
system.mem_ctrls.rdQLenPdf::20                      0                       # What read queue length does an incoming req see
system.mem_ctrls.rdQLenPdf::21                      0                       # What read queue length does an incoming req see
system.mem_ctrls.rdQLenPdf::22                      0                       # What read queue length does an incoming req see
system.mem_ctrls.rdQLenPdf::23                      0                       # What read queue length does an incoming req see
system.mem_ctrls.rdQLenPdf::24                      0                       # What read queue length does an incoming req see
system.mem_ctrls.rdQLenPdf::25                      0                       # What read queue length does an incoming req see
system.mem_ctrls.rdQLenPdf::26                      0                       # What read queue length does an incoming req see
system.mem_ctrls.rdQLenPdf::27                      0                       # What read queue length does an incoming req see
system.mem_ctrls.rdQLenPdf::28                      0                       # What read queue length does an incoming req see
system.mem_ctrls.rdQLenPdf::29                      0                       # What read queue length does an incoming req see
system.mem_ctrls.rdQLenPdf::30                      0                       # What read queue length does an incoming req see
system.mem_ctrls.rdQLenPdf::31                      0                       # What read queue length does an incoming req see
system.mem_ctrls.wrQLenPdf::0                       1                       # What write queue length does an incoming req see
system.mem_ctrls.wrQLenPdf::1                       1                       # What write queue length does an incoming req see
system.mem_ctrls.wrQLenPdf::2                       1                       # What write queue length does an incoming req see
system.mem_ctrls.wrQLenPdf::3                       1                       # What write queue length does an incoming req see
system.mem_ctrls.wrQLenPdf::4                       1                       # What write queue length does an incoming req see
system.mem_ctrls.wrQLenPdf::5                       1                       # What write queue length does an incoming req see
system.mem_ctrls.wrQLenPdf::6                       1                       # What write queue length does an incoming req see
system.mem_ctrls.wrQLenPdf::7                       1                       # What write queue length does an incoming req see
system.mem_ctrls.wrQLenPdf::8                       1                       # What write queue length does an incoming req see
system.mem_ctrls.wrQLenPdf::9                       1                       # What write queue length does an incoming req see
system.mem_ctrls.wrQLenPdf::10                      1                       # What write queue length does an incoming req see
system.mem_ctrls.wrQLenPdf::11                      1                       # What write queue length does an incoming req see
system.mem_ctrls.wrQLenPdf::12                      1                       # What write queue length does an incoming req see
system.mem_ctrls.wrQLenPdf::13                      1                       # What write queue length does an incoming req see
system.mem_ctrls.wrQLenPdf::14                      1                       # What write queue length does an incoming req see
system.mem_ctrls.wrQLenPdf::15                     70                       # What write queue length does an incoming req see
system.mem_ctrls.wrQLenPdf::16                    127                       # What write queue length does an incoming req see
system.mem_ctrls.wrQLenPdf::17                   3417                       # What write queue length does an incoming req see
system.mem_ctrls.wrQLenPdf::18                   3599                       # What write queue length does an incoming req see
system.mem_ctrls.wrQLenPdf::19                   3603                       # What write queue length does an incoming req see
system.mem_ctrls.wrQLenPdf::20                   3604                       # What write queue length does an incoming req see
system.mem_ctrls.wrQLenPdf::21                   3642                       # What write queue length does an incoming req see
system.mem_ctrls.wrQLenPdf::22                   3622                       # What write queue length does an incoming req see
system.mem_ctrls.wrQLenPdf::23                   3618                       # What write queue length does an incoming req see
system.mem_ctrls.wrQLenPdf::24                   3613                       # What write queue length does an incoming req see
system.mem_ctrls.wrQLenPdf::25                   3599                       # What write queue length does an incoming req see
system.mem_ctrls.wrQLenPdf::26                   3600                       # What write queue length does an incoming req see
system.mem_ctrls.wrQLenPdf::27                   3594                       # What write queue length does an incoming req see
system.mem_ctrls.wrQLenPdf::28                   3601                       # What write queue length does an incoming req see
system.mem_ctrls.wrQLenPdf::29                   3601                       # What write queue length does an incoming req see
system.mem_ctrls.wrQLenPdf::30                   3596                       # What write queue length does an incoming req see
system.mem_ctrls.wrQLenPdf::31                   3627                       # What write queue length does an incoming req see
system.mem_ctrls.wrQLenPdf::32                   3592                       # What write queue length does an incoming req see
system.mem_ctrls.wrQLenPdf::33                      3                       # What write queue length does an incoming req see
system.mem_ctrls.wrQLenPdf::34                      0                       # What write queue length does an incoming req see
system.mem_ctrls.wrQLenPdf::35                      0                       # What write queue length does an incoming req see
system.mem_ctrls.wrQLenPdf::36                      0                       # What write queue length does an incoming req see
system.mem_ctrls.wrQLenPdf::37                      0                       # What write queue length does an incoming req see
system.mem_ctrls.wrQLenPdf::38                      0                       # What write queue length does an incoming req see
system.mem_ctrls.wrQLenPdf::39                      0                       # What write queue length does an incoming req see
system.mem_ctrls.wrQLenPdf::40                      0                       # What write queue length does an incoming req see
system.mem_ctrls.wrQLenPdf::41                      0                       # What write queue length does an incoming req see
system.mem_ctrls.wrQLenPdf::42                      0                       # What write queue length does an incoming req see
system.mem_ctrls.wrQLenPdf::43                      0                       # What write queue length does an incoming req see
system.mem_ctrls.wrQLenPdf::44                      0                       # What write queue length does an incoming req see
system.mem_ctrls.wrQLenPdf::45                      0                       # What write queue length does an incoming req see
system.mem_ctrls.wrQLenPdf::46                      0                       # What write queue length does an incoming req see
system.mem_ctrls.wrQLenPdf::47                      0                       # What write queue length does an incoming req see
system.mem_ctrls.wrQLenPdf::48                      0                       # What write queue length does an incoming req see
system.mem_ctrls.wrQLenPdf::49                      0                       # What write queue length does an incoming req see
system.mem_ctrls.wrQLenPdf::50                      0                       # What write queue length does an incoming req see
system.mem_ctrls.wrQLenPdf::51                      0                       # What write queue length does an incoming req see
system.mem_ctrls.wrQLenPdf::52                      0                       # What write queue length does an incoming req see
system.mem_ctrls.wrQLenPdf::53                      0                       # What write queue length does an incoming req see
system.mem_ctrls.wrQLenPdf::54                      0                       # What write queue length does an incoming req see
system.mem_ctrls.wrQLenPdf::55                      0                       # What write queue length does an incoming req see
system.mem_ctrls.wrQLenPdf::56                      0                       # What write queue length does an incoming req see
system.mem_ctrls.wrQLenPdf::57                      0                       # What write queue length does an incoming req see
system.mem_ctrls.wrQLenPdf::58                      0                       # What write queue length does an incoming req see
system.mem_ctrls.wrQLenPdf::59                      0                       # What write queue length does an incoming req see
system.mem_ctrls.wrQLenPdf::60                      0                       # What write queue length does an incoming req see
system.mem_ctrls.wrQLenPdf::61                      0                       # What write queue length does an incoming req see
system.mem_ctrls.wrQLenPdf::62                      0                       # What write queue length does an incoming req see
system.mem_ctrls.wrQLenPdf::63                      0                       # What write queue length does an incoming req see
system.mem_ctrls.bytesPerActivate::samples        21012                       # Bytes accessed per row activation
system.mem_ctrls.bytesPerActivate::mean    537.557967                       # Bytes accessed per row activation
system.mem_ctrls.bytesPerActivate::gmean   403.953562                       # Bytes accessed per row activation
system.mem_ctrls.bytesPerActivate::stdev   324.441083                       # Bytes accessed per row activation
system.mem_ctrls.bytesPerActivate::0-127         2704     12.87%     12.87% # Bytes accessed per row activation
system.mem_ctrls.bytesPerActivate::128-255         1951      9.29%     22.15% # Bytes accessed per row activation
system.mem_ctrls.bytesPerActivate::256-383         1215      5.78%     27.94% # Bytes accessed per row activation
system.mem_ctrls.bytesPerActivate::384-511          878      4.18%     32.11% # Bytes accessed per row activation
system.mem_ctrls.bytesPerActivate::512-639         8360     39.79%     71.90% # Bytes accessed per row activation
system.mem_ctrls.bytesPerActivate::640-767          450      2.14%     74.04% # Bytes accessed per row activation
system.mem_ctrls.bytesPerActivate::768-895          281      1.34%     75.38% # Bytes accessed per row activation
system.mem_ctrls.bytesPerActivate::896-1023          321      1.53%     76.91% # Bytes accessed per row activation
system.mem_ctrls.bytesPerActivate::1024-1151         4852     23.09%    100.00% # Bytes accessed per row activation
system.mem_ctrls.bytesPerActivate::total        21012                       # Bytes accessed per row activation
system.mem_ctrls.rdPerTurnAround::samples         3592                       # Reads before turning the bus around for writes
system.mem_ctrls.rdPerTurnAround::mean      33.043708                       # Reads before turning the bus around for writes
system.mem_ctrls.rdPerTurnAround::gmean     24.458512                       # Reads before turning the bus around for writes
system.mem_ctrls.rdPerTurnAround::stdev     60.976246                       # Reads before turning the bus around for writes
system.mem_ctrls.rdPerTurnAround::0-127          3459     96.30%     96.30% # Reads before turning the bus around for writes
system.mem_ctrls.rdPerTurnAround::128-255           10      0.28%     96.58% # Reads before turning the bus around for writes
system.mem_ctrls.rdPerTurnAround::256-383          122      3.40%     99.97% # Reads before turning the bus around for writes
system.mem_ctrls.rdPerTurnAround::2432-2559            1      0.03%    100.00% # Reads before turning the bus around for writes
system.mem_ctrls.rdPerTurnAround::total          3592                       # Reads before turning the bus around for writes
system.mem_ctrls.wrPerTurnAround::samples         3592                       # Writes before turning the bus around for reads
system.mem_ctrls.wrPerTurnAround::mean      16.067929                       # Writes before turning the bus around for reads
system.mem_ctrls.wrPerTurnAround::gmean     16.063459                       # Writes before turning the bus around for reads
system.mem_ctrls.wrPerTurnAround::stdev      0.399605                       # Writes before turning the bus around for reads
[...]
system.cpu.icache.ReadReq_avg_miss_latency::total 92728.618421                       # average ReadReq miss latency
system.cpu.icache.ReadReq_mshr_misses::.cpu.inst          608                       # number of ReadReq MSHR misses
system.cpu.icache.ReadReq_mshr_misses::total          608                       # number of ReadReq MSHR misses
system.cpu.icache.ReadReq_mshr_miss_latency::.cpu.inst     55163000                       # number of ReadReq MSHR miss cycles
system.cpu.icache.ReadReq_mshr_miss_latency::total     55163000                       # number of ReadReq MSHR miss cycles
system.cpu.icache.ReadReq_mshr_miss_rate::.cpu.inst     0.000523                       # mshr miss rate for ReadReq accesses
system.cpu.icache.ReadReq_mshr_miss_rate::total     0.000523                       # mshr miss rate for ReadReq accesses
system.cpu.icache.ReadReq_avg_mshr_miss_latency::.cpu.inst 90728.618421                       # average ReadReq mshr miss latency
system.cpu.icache.ReadReq_avg_mshr_miss_latency::total 90728.618421                       # average ReadReq mshr miss latency
system.cpu.icache.tags.pwrStateResidencyTicks::UNDEFINED  22829481000                       # Cumulative time (in ticks) in various power states
system.cpu.icache.tags.tagsinuse           330.130625                       # Cycle average of tags in use
system.cpu.icache.tags.total_refs             1162787                       # Total number of references to valid blocks.
system.cpu.icache.tags.sampled_refs               608                       # Sample count of references to valid blocks.
system.cpu.icache.tags.avg_refs           1912.478618                       # Average number of references to valid blocks.
system.cpu.icache.tags.warmup_cycle            108000                       # Cycle when the warmup percentage was hit.
system.cpu.icache.tags.occ_blocks::.cpu.inst   330.130625                       # Average occupied blocks per requestor
system.cpu.icache.tags.occ_percent::.cpu.inst     0.644786                       # Average percentage of cache occupancy
system.cpu.icache.tags.occ_percent::total     0.644786                       # Average percentage of cache occupancy
system.cpu.icache.tags.occ_task_id_blocks::1024          353                       # Occupied blocks per task id
system.cpu.icache.tags.age_task_id_blocks_1024::4          353                       # Occupied blocks per task id
system.cpu.icache.tags.occ_task_id_percent::1024     0.689453                       # Percentage of cache occupancy per task id
system.cpu.icache.tags.tag_accesses           2326182                       # Number of tag accesses
system.cpu.icache.tags.data_accesses          2326182                       # Number of data accesses
system.cpu.dtb.walker.pwrStateResidencyTicks::UNDEFINED  22829481000                       # Cumulative time (in ticks) in various power states
system.cpu.dtb.stage2_mmu.stage2_tlb.walker.pwrStateResidencyTicks::UNDEFINED  22829481000                       # Cumulative time (in ticks) in various power states
system.cpu.dcache.pwrStateResidencyTicks::UNDEFINED  22829481000                       # Cumulative time (in ticks) in various power states
system.cpu.dcache.demand_hits::.cpu.data      6989596                       # number of demand (read+write) hits
system.cpu.dcache.demand_hits::total          6989596                       # number of demand (read+write) hits
system.cpu.dcache.overall_hits::.cpu.data      6989687                       # number of overall hits
system.cpu.dcache.overall_hits::total         6989687                       # number of overall hits
system.cpu.dcache.demand_misses::.cpu.data       152670                       # number of demand (read+write) misses
system.cpu.dcache.demand_misses::total         152670                       # number of demand (read+write) misses
system.cpu.dcache.overall_misses::.cpu.data       154192                       # number of overall misses
system.cpu.dcache.overall_misses::total        154192                       # number of overall misses
system.cpu.dcache.demand_miss_latency::.cpu.data  12822101993                       # number of demand (read+write) miss cycles
system.cpu.dcache.demand_miss_latency::total  12822101993                       # number of demand (read+write) miss cycles
system.cpu.dcache.overall_miss_latency::.cpu.data  12822101993                       # number of overall miss cycles
system.cpu.dcache.overall_miss_latency::total  12822101993                       # number of overall miss cycles
system.cpu.dcache.demand_accesses::.cpu.data      7142266                       # number of demand (read+write) accesses
system.cpu.dcache.demand_accesses::total      7142266                       # number of demand (read+write) accesses
system.cpu.dcache.overall_accesses::.cpu.data      7143879                       # number of overall (read+write) accesses
system.cpu.dcache.overall_accesses::total      7143879                       # number of overall (read+write) accesses
system.cpu.dcache.demand_miss_rate::.cpu.data     0.021376                       # miss rate for demand accesses
system.cpu.dcache.demand_miss_rate::total     0.021376                       # miss rate for demand accesses
system.cpu.dcache.overall_miss_rate::.cpu.data     0.021584                       # miss rate for overall accesses
system.cpu.dcache.overall_miss_rate::total     0.021584                       # miss rate for overall accesses
system.cpu.dcache.demand_avg_miss_latency::.cpu.data 83985.733890                       # average overall miss latency
system.cpu.dcache.demand_avg_miss_latency::total 83985.733890                       # average overall miss latency
system.cpu.dcache.overall_avg_miss_latency::.cpu.data 83156.726633                       # average overall miss latency
system.cpu.dcache.overall_avg_miss_latency::total 83156.726633                       # average overall miss latency
system.cpu.dcache.blocked_cycles::no_mshrs        15759                       # number of cycles access was blocked
system.cpu.dcache.blocked_cycles::no_targets            0                       # number of cycles access was blocked
system.cpu.dcache.blocked::no_mshrs               596                       # number of cycles access was blocked
system.cpu.dcache.blocked::no_targets               0                       # number of cycles access was blocked
system.cpu.dcache.avg_blocked_cycles::no_mshrs    26.441275                       # average number of cycles each access was blocked
system.cpu.dcache.avg_blocked_cycles::no_targets          nan                       # average number of cycles each access was blocked
system.cpu.dcache.writebacks::.writebacks        72128                       # number of writebacks
system.cpu.dcache.writebacks::total             72128                       # number of writebacks
system.cpu.dcache.demand_mshr_hits::.cpu.data        32172                       # number of demand (read+write) MSHR hits
system.cpu.dcache.demand_mshr_hits::total        32172                       # number of demand (read+write) MSHR hits
system.cpu.dcache.overall_mshr_hits::.cpu.data        32172                       # number of overall MSHR hits
system.cpu.dcache.overall_mshr_hits::total        32172                       # number of overall MSHR hits
system.cpu.dcache.demand_mshr_misses::.cpu.data       120498                       # number of demand (read+write) MSHR misses
system.cpu.dcache.demand_mshr_misses::total       120498                       # number of demand (read+write) MSHR misses
system.cpu.dcache.overall_mshr_misses::.cpu.data       122015                       # number of overall MSHR misses
system.cpu.dcache.overall_mshr_misses::total       122015                       # number of overall MSHR misses
system.cpu.dcache.demand_mshr_miss_latency::.cpu.data  12308995000                       # number of demand (read+write) MSHR miss cycles
system.cpu.dcache.demand_mshr_miss_latency::total  12308995000                       # number of demand (read+write) MSHR miss cycles
system.cpu.dcache.overall_mshr_miss_latency::.cpu.data  12465501999                       # number of overall MSHR miss cycles
system.cpu.dcache.overall_mshr_miss_latency::total  12465501999                       # number of overall MSHR miss cycles
system.cpu.dcache.demand_mshr_miss_rate::.cpu.data     0.016871                       # mshr miss rate for demand accesses
system.cpu.dcache.demand_mshr_miss_rate::total     0.016871                       # mshr miss rate for demand accesses
system.cpu.dcache.overall_mshr_miss_rate::.cpu.data     0.017080                       # mshr miss rate for overall accesses
system.cpu.dcache.overall_mshr_miss_rate::total     0.017080                       # mshr miss rate for overall accesses
system.cpu.dcache.demand_avg_mshr_miss_latency::.cpu.data 102151.031552                       # average overall mshr miss latency
system.cpu.dcache.demand_avg_mshr_miss_latency::total 102151.031552                       # average overall mshr miss latency
system.cpu.dcache.overall_avg_mshr_miss_latency::.cpu.data 102163.684785                       # average overall mshr miss latency
system.cpu.dcache.overall_avg_mshr_miss_latency::total 102163.684785                       # average overall mshr miss latency
system.cpu.dcache.replacements                 121759                       # number of replacements
system.cpu.dcache.ReadReq_hits::.cpu.data      5637076                       # number of ReadReq hits
system.cpu.dcache.ReadReq_hits::total         5637076                       # number of ReadReq hits
system.cpu.dcache.ReadReq_misses::.cpu.data        49690                       # number of ReadReq misses
system.cpu.dcache.ReadReq_misses::total         49690                       # number of ReadReq misses
system.cpu.dcache.ReadReq_miss_latency::.cpu.data   4836943000                       # number of ReadReq miss cycles
system.cpu.dcache.ReadReq_miss_latency::total   4836943000                       # number of ReadReq miss cycles
system.cpu.dcache.ReadReq_accesses::.cpu.data      5686766                       # number of ReadReq accesses(hits+misses)
system.cpu.dcache.ReadReq_accesses::total      5686766                       # number of ReadReq accesses(hits+misses)
system.cpu.dcache.ReadReq_miss_rate::.cpu.data     0.008738                       # miss rate for ReadReq accesses
system.cpu.dcache.ReadReq_miss_rate::total     0.008738                       # miss rate for ReadReq accesses
system.cpu.dcache.ReadReq_avg_miss_latency::.cpu.data 97342.382773                       # average ReadReq miss latency
system.cpu.dcache.ReadReq_avg_miss_latency::total 97342.382773                       # average ReadReq miss latency
system.cpu.dcache.ReadReq_mshr_hits::.cpu.data           82                       # number of ReadReq MSHR hits
system.cpu.dcache.ReadReq_mshr_hits::total           82                       # number of ReadReq MSHR hits
system.cpu.dcache.ReadReq_mshr_misses::.cpu.data        49608                       # number of ReadReq MSHR misses
system.cpu.dcache.ReadReq_mshr_misses::total        49608                       # number of ReadReq MSHR misses
system.cpu.dcache.ReadReq_mshr_miss_latency::.cpu.data   4733756000                       # number of ReadReq MSHR miss cycles
system.cpu.dcache.ReadReq_mshr_miss_latency::total   4733756000                       # number of ReadReq MSHR miss cycles
system.cpu.dcache.ReadReq_mshr_miss_rate::.cpu.data     0.008723                       # mshr miss rate for ReadReq accesses
system.cpu.dcache.ReadReq_mshr_miss_rate::total     0.008723                       # mshr miss rate for ReadReq accesses
system.cpu.dcache.ReadReq_avg_mshr_miss_latency::.cpu.data 95423.238187                       # average ReadReq mshr miss latency
system.cpu.dcache.ReadReq_avg_mshr_miss_latency::total 95423.238187                       # average ReadReq mshr miss latency
system.cpu.dcache.WriteReq_hits::.cpu.data      1352520                       # number of WriteReq hits
system.cpu.dcache.WriteReq_hits::total        1352520                       # number of WriteReq hits
system.cpu.dcache.WriteReq_misses::.cpu.data       102980                       # number of WriteReq misses
system.cpu.dcache.WriteReq_misses::total       102980                       # number of WriteReq misses
system.cpu.dcache.WriteReq_miss_latency::.cpu.data   7985158993                       # number of WriteReq miss cycles
system.cpu.dcache.WriteReq_miss_latency::total   7985158993                       # number of WriteReq miss cycles
system.cpu.dcache.WriteReq_accesses::.cpu.data      1455500                       # number of WriteReq accesses(hits+misses)
system.cpu.dcache.WriteReq_accesses::total      1455500                       # number of WriteReq accesses(hits+misses)
system.cpu.dcache.WriteReq_miss_rate::.cpu.data     0.070752                       # miss rate for WriteReq accesses
system.cpu.dcache.WriteReq_miss_rate::total     0.070752                       # miss rate for WriteReq accesses
system.cpu.dcache.WriteReq_avg_miss_latency::.cpu.data 77540.871946                       # average WriteReq miss latency
system.cpu.dcache.WriteReq_avg_miss_latency::total 77540.871946                       # average WriteReq miss latency
system.cpu.dcache.WriteReq_mshr_hits::.cpu.data        32090                       # number of WriteReq MSHR hits
system.cpu.dcache.WriteReq_mshr_hits::total        32090                       # number of WriteReq MSHR hits
system.cpu.dcache.WriteReq_mshr_misses::.cpu.data        70890                       # number of WriteReq MSHR misses
system.cpu.dcache.WriteReq_mshr_misses::total        70890                       # number of WriteReq MSHR misses
system.cpu.dcache.WriteReq_mshr_miss_latency::.cpu.data   7575239000                       # number of WriteReq MSHR miss cycles
system.cpu.dcache.WriteReq_mshr_miss_latency::total   7575239000                       # number of WriteReq MSHR miss cycles
system.cpu.dcache.WriteReq_mshr_miss_rate::.cpu.data     0.048705                       # mshr miss rate for WriteReq accesses
system.cpu.dcache.WriteReq_mshr_miss_rate::total     0.048705                       # mshr miss rate for WriteReq accesses
system.cpu.dcache.WriteReq_avg_mshr_miss_latency::.cpu.data 106859.063338                       # average WriteReq mshr miss latency
system.cpu.dcache.WriteReq_avg_mshr_miss_latency::total 106859.063338                       # average WriteReq mshr miss latency
system.cpu.dcache.SoftPFReq_hits::.cpu.data           91                       # number of SoftPFReq hits
system.cpu.dcache.SoftPFReq_hits::total            91                       # number of SoftPFReq hits
system.cpu.dcache.SoftPFReq_misses::.cpu.data         1522                       # number of SoftPFReq misses
system.cpu.dcache.SoftPFReq_misses::total         1522                       # number of SoftPFReq misses
system.cpu.dcache.SoftPFReq_accesses::.cpu.data         1613                       # number of SoftPFReq accesses(hits+misses)
system.cpu.dcache.SoftPFReq_accesses::total         1613                       # number of SoftPFReq accesses(hits+misses)
system.cpu.dcache.SoftPFReq_miss_rate::.cpu.data     0.943583                       # miss rate for SoftPFReq accesses
system.cpu.dcache.SoftPFReq_miss_rate::total     0.943583                       # miss rate for SoftPFReq accesses
system.cpu.dcache.SoftPFReq_mshr_misses::.cpu.data         1517                       # number of SoftPFReq MSHR misses
system.cpu.dcache.SoftPFReq_mshr_misses::total         1517                       # number of SoftPFReq MSHR misses
system.cpu.dcache.SoftPFReq_mshr_miss_latency::.cpu.data    156506999                       # number of SoftPFReq MSHR miss cycles
system.cpu.dcache.SoftPFReq_mshr_miss_latency::total    156506999                       # number of SoftPFReq MSHR miss cycles
system.cpu.dcache.SoftPFReq_mshr_miss_rate::.cpu.data     0.940484                       # mshr miss rate for SoftPFReq accesses
system.cpu.dcache.SoftPFReq_mshr_miss_rate::total     0.940484                       # mshr miss rate for SoftPFReq accesses
system.cpu.dcache.SoftPFReq_avg_mshr_miss_latency::.cpu.data 103168.753461                       # average SoftPFReq mshr miss latency
system.cpu.dcache.SoftPFReq_avg_mshr_miss_latency::total 103168.753461                       # average SoftPFReq mshr miss latency
system.cpu.dcache.LoadLockedReq_hits::.cpu.data           38                       # number of LoadLockedReq hits
system.cpu.dcache.LoadLockedReq_hits::total           38                       # number of LoadLockedReq hits
system.cpu.dcache.LoadLockedReq_accesses::.cpu.data           38                       # number of LoadLockedReq accesses(hits+misses)
system.cpu.dcache.LoadLockedReq_accesses::total           38                       # number of LoadLockedReq accesses(hits+misses)
system.cpu.dcache.StoreCondReq_hits::.cpu.data           38                       # number of StoreCondReq hits
system.cpu.dcache.StoreCondReq_hits::total           38                       # number of StoreCondReq hits
system.cpu.dcache.StoreCondReq_accesses::.cpu.data           38                       # number of StoreCondReq accesses(hits+misses)
system.cpu.dcache.StoreCondReq_accesses::total           38                       # number of StoreCondReq accesses(hits+misses)
system.cpu.dcache.tags.pwrStateResidencyTicks::UNDEFINED  22829481000                       # Cumulative time (in ticks) in various power states
system.cpu.dcache.tags.tagsinuse           245.076788                       # Cycle average of tags in use
system.cpu.dcache.tags.total_refs             7111778                       # Total number of references to valid blocks.
system.cpu.dcache.tags.sampled_refs            122015                       # Sample count of references to valid blocks.
system.cpu.dcache.tags.avg_refs             58.286096                       # Average number of references to valid blocks.
system.cpu.dcache.tags.warmup_cycle            223000                       # Cycle when the warmup percentage was hit.
system.cpu.dcache.tags.occ_blocks::.cpu.data   245.076788                       # Average occupied blocks per requestor
system.cpu.dcache.tags.occ_percent::.cpu.data     0.957331                       # Average percentage of cache occupancy
system.cpu.dcache.tags.occ_percent::total     0.957331                       # Average percentage of cache occupancy
system.cpu.dcache.tags.occ_task_id_blocks::1024          256                       # Occupied blocks per task id
system.cpu.dcache.tags.age_task_id_blocks_1024::0            2                       # Occupied blocks per task id
system.cpu.dcache.tags.age_task_id_blocks_1024::1            9                       # Occupied blocks per task id
system.cpu.dcache.tags.age_task_id_blocks_1024::2          174                       # Occupied blocks per task id
system.cpu.dcache.tags.age_task_id_blocks_1024::3           19                       # Occupied blocks per task id
system.cpu.dcache.tags.age_task_id_blocks_1024::4           52                       # Occupied blocks per task id
system.cpu.dcache.tags.occ_task_id_percent::1024            1                       # Percentage of cache occupancy per task id
system.cpu.dcache.tags.tag_accesses          14409925                       # Number of tag accesses
system.cpu.dcache.tags.data_accesses         14409925                       # Number of data accesses
system.cpu.itb.walker.pwrStateResidencyTicks::UNDEFINED  22829481000                       # Cumulative time (in ticks) in various power states
system.cpu.itb.stage2_mmu.stage2_tlb.walker.pwrStateResidencyTicks::UNDEFINED  22829481000                       # Cumulative time (in ticks) in various power states

---------- End Simulation Statistics   ----------
