
---------- Begin Simulation Statistics ----------
final_tick                                14755773000                       # Number of ticks from beginning of simulation (restored from checkpoints and never reset)
host_inst_rate                                 222639                       # Simulator instruction rate (inst/s)
host_mem_usage                                 690576                       # Number of bytes of host memory used
host_op_rate                                   244165                       # Simulator op (including micro ops) rate (op/s)
host_seconds                                    44.92                       # Real time elapsed on the host
host_tick_rate                              328516758                       # Simulator tick rate (ticks/s)
sim_freq                                 1000000000000                       # Frequency of simulated ticks
sim_insts                                    10000000                       # Number of instructions simulated
sim_ops                                      10966938                       # Number of ops (including micro ops) simulated
sim_seconds                                  0.014756                       # Number of seconds simulated
sim_ticks                                 14755773000                       # Number of ticks simulated
system.cpu.branchPred.BTBCorrect                    0                       # Number of correct BTB predictions (this stat may not work properly.
system.cpu.branchPred.BTBHitPct             56.953515                       # BTB Hit Percentage
system.cpu.branchPred.BTBHits                  786585                       # Number of BTB hits
system.cpu.branchPred.BTBLookups              1381100                       # Number of BTB lookups
system.cpu.branchPred.RASInCorrect                 10                       # Number of incorrect RAS predictions.
system.cpu.branchPred.condIncorrect             13647                       # Number of conditional branches incorrect
system.cpu.branchPred.condPredicted           1476583                       # Number of conditional branches predicted
system.cpu.branchPred.indirectHits              27110                       # Number of indirect target hits.
system.cpu.branchPred.indirectLookups           54383                       # Number of indirect predictor lookups.
system.cpu.branchPred.indirectMisses            27273                       # Number of indirect misses.
system.cpu.branchPred.lookups                 1868195                       # Number of BP lookups
system.cpu.branchPred.usedRAS                  108878                       # Number of times the RAS was used to get a target.
system.cpu.branchPredindirectMispredicted          115                       # Number of mispredicted indirect branches.
system.cpu.committedInsts                    10000000                       # Number of instructions committed
system.cpu.committedOps                      10966938                       # Number of ops (including micro ops) committed
system.cpu.cpi                               1.475577                       # CPI: cycles per instruction
system.cpu.discardedOps                         73396                       # Number of ops (including micro ops) which were discarded before commit
system.cpu.dtb.accesses                             0                       # DTB accesses
system.cpu.dtb.align_faults                         0                       # Number of TLB faults due to alignment restrictions
system.cpu.dtb.domain_faults                        0                       # Number of TLB faults due to domain restrictions
system.cpu.dtb.flush_entries                        0                       # Number of entries that have been flushed from TLB
system.cpu.dtb.flush_tlb                            0                       # Number of times complete TLB was flushed
system.cpu.dtb.flush_tlb_asid                       0                       # Number of times TLB was flushed by ASID
system.cpu.dtb.flush_tlb_mva                        0                       # Number of times TLB was flushed by MVA
system.cpu.dtb.flush_tlb_mva_asid                   0                       # Number of times TLB was flushed by MVA & ASID
system.cpu.dtb.hits                                 0                       # DTB hits
system.cpu.dtb.inst_accesses                        0                       # ITB inst accesses
system.cpu.dtb.inst_hits                            0                       # ITB inst hits
system.cpu.dtb.inst_misses                          0                       # ITB inst misses
system.cpu.dtb.misses                               0                       # DTB misses
system.cpu.dtb.perms_faults                         0                       # Number of TLB faults due to permissions restrictions
system.cpu.dtb.prefetch_faults                      0                       # Number of TLB faults due to prefetch
system.cpu.dtb.read_accesses                        0                       # DTB read accesses
system.cpu.dtb.read_hits                            0                       # DTB read hits
system.cpu.dtb.read_misses                          0                       # DTB read misses
system.cpu.dtb.stage2_mmu.stage2_tlb.accesses            0                       # DTB accesses
system.cpu.dtb.stage2_mmu.stage2_tlb.align_faults            0                       # Number of TLB faults due to alignment restrictions
system.cpu.dtb.stage2_mmu.stage2_tlb.domain_faults            0                       # Number of TLB faults due to domain restrictions
system.cpu.dtb.stage2_mmu.stage2_tlb.flush_entries            0                       # Number of entries that have been flushed from TLB
system.cpu.dtb.stage2_mmu.stage2_tlb.flush_tlb            0                       # Number of times complete TLB was flushed
system.cpu.dtb.stage2_mmu.stage2_tlb.flush_tlb_asid            0                       # Number of times TLB was flushed by ASID
system.cpu.dtb.stage2_mmu.stage2_tlb.flush_tlb_mva            0                       # Number of times TLB was flushed by MVA
system.cpu.dtb.stage2_mmu.stage2_tlb.flush_tlb_mva_asid            0                       # Number of times TLB was flushed by MVA & ASID
system.cpu.dtb.stage2_mmu.stage2_tlb.hits            0                       # DTB hits
system.cpu.dtb.stage2_mmu.stage2_tlb.inst_accesses            0                       # ITB inst accesses
system.cpu.dtb.stage2_mmu.stage2_tlb.inst_hits            0                       # ITB inst hits
system.cpu.dtb.stage2_mmu.stage2_tlb.inst_misses            0                       # ITB inst misses
system.cpu.dtb.stage2_mmu.stage2_tlb.misses            0                       # DTB misses
system.cpu.dtb.stage2_mmu.stage2_tlb.perms_faults            0                       # Number of TLB faults due to permissions restrictions
system.cpu.dtb.stage2_mmu.stage2_tlb.prefetch_faults            0                       # Number of TLB faults due to prefetch
system.cpu.dtb.stage2_mmu.stage2_tlb.read_accesses            0                       # DTB read accesses
system.cpu.dtb.stage2_mmu.stage2_tlb.read_hits            0                       # DTB read hits
system.cpu.dtb.stage2_mmu.stage2_tlb.read_misses            0                       # DTB read misses
system.cpu.dtb.stage2_mmu.stage2_tlb.walker.walkRequestOrigin_Requested::Data            0                       # Table walker requests started/completed, data/inst
system.cpu.dtb.stage2_mmu.stage2_tlb.walker.walkRequestOrigin_Requested::Inst            0                       # Table walker requests started/completed, data/inst
system.cpu.dtb.stage2_mmu.stage2_tlb.walker.walkRequestOrigin_Requested::total            0                       # Table walker requests started/completed, data/inst
system.cpu.dtb.stage2_mmu.stage2_tlb.walker.walkRequestOrigin_Completed::Data            0                       # Table walker requests started/completed, data/inst
system.cpu.dtb.stage2_mmu.stage2_tlb.walker.walkRequestOrigin_Completed::Inst            0                       # Table walker requests started/completed, data/inst
system.cpu.dtb.stage2_mmu.stage2_tlb.walker.walkRequestOrigin_Completed::total            0                       # Table walker requests started/completed, data/inst
system.cpu.dtb.stage2_mmu.stage2_tlb.walker.walkRequestOrigin::total            0                       # Table walker requests started/completed, data/inst
system.cpu.dtb.stage2_mmu.stage2_tlb.walker.walks            0                       # Table walker walks requested
system.cpu.dtb.stage2_mmu.stage2_tlb.write_accesses            0                       # DTB write accesses
system.cpu.dtb.stage2_mmu.stage2_tlb.write_hits            0                       # DTB write hits
system.cpu.dtb.stage2_mmu.stage2_tlb.write_misses            0                       # DTB write misses
system.cpu.dtb.walker.walkRequestOrigin_Requested::Data            0                       # Table walker requests started/completed, data/inst
system.cpu.dtb.walker.walkRequestOrigin_Requested::Inst            0                       # Table walker requests started/completed, data/inst
system.cpu.dtb.walker.walkRequestOrigin_Requested::total            0                       # Table walker requests started/completed, data/inst
system.cpu.dtb.walker.walkRequestOrigin_Completed::Data            0                       # Table walker requests started/completed, data/inst
system.cpu.dtb.walker.walkRequestOrigin_Completed::Inst            0                       # Table walker requests started/completed, data/inst
system.cpu.dtb.walker.walkRequestOrigin_Completed::total            0                       # Table walker requests started/completed, data/inst
system.cpu.dtb.walker.walkRequestOrigin::total            0                       # Table walker requests started/completed, data/inst
system.cpu.dtb.walker.walks                         0                       # Table walker walks requested
system.cpu.dtb.write_accesses                       0                       # DTB write accesses
system.cpu.dtb.write_hits                           0                       # DTB write hits
system.cpu.dtb.write_misses                         0                       # DTB write misses
system.cpu.fetch2.amo_instructions                  0                       # Number of memory atomic instructions successfully decoded
system.cpu.fetch2.fp_instructions                   0                       # Number of floating point instructions successfully decoded
system.cpu.fetch2.int_instructions            4895111                       # Number of integer instructions successfully decoded
system.cpu.fetch2.load_instructions           1979709                       # Number of memory load instructions successfully decoded
system.cpu.fetch2.store_instructions          1087479                       # Number of memory store instructions successfully decoded
system.cpu.fetch2.vec_instructions                  0                       # Number of SIMD instructions successfully decoded
system.cpu.idleCycles                         2376446                       # Total number of cycles that the object has spent stopped
system.cpu.ipc                               0.677701                       # IPC: instructions per cycle
system.cpu.itb.accesses                             0                       # DTB accesses
system.cpu.itb.align_faults                         0                       # Number of TLB faults due to alignment restrictions
system.cpu.itb.domain_faults                        0                       # Number of TLB faults due to domain restrictions
system.cpu.itb.flush_entries                        0                       # Number of entries that have been flushed from TLB
system.cpu.itb.flush_tlb                            0                       # Number of times complete TLB was flushed
system.cpu.itb.flush_tlb_asid                       0                       # Number of times TLB was flushed by ASID
system.cpu.itb.flush_tlb_mva                        0                       # Number of times TLB was flushed by MVA
system.cpu.itb.flush_tlb_mva_asid                   0                       # Number of times TLB was flushed by MVA & ASID
system.cpu.itb.hits                                 0                       # DTB hits
system.cpu.itb.inst_accesses                        0                       # ITB inst accesses
system.cpu.itb.inst_hits                            0                       # ITB inst hits
system.cpu.itb.inst_misses                          0                       # ITB inst misses
system.cpu.itb.misses                               0                       # DTB misses
system.cpu.itb.perms_faults                         0                       # Number of TLB faults due to permissions restrictions
system.cpu.itb.prefetch_faults                      0                       # Number of TLB faults due to prefetch
system.cpu.itb.read_accesses                        0                       # DTB read accesses
system.cpu.itb.read_hits                            0                       # DTB read hits
system.cpu.itb.read_misses                          0                       # DTB read misses
system.cpu.itb.stage2_mmu.stage2_tlb.accesses            0                       # DTB accesses
system.cpu.itb.stage2_mmu.stage2_tlb.align_faults            0                       # Number of TLB faults due to alignment restrictions
system.cpu.itb.stage2_mmu.stage2_tlb.domain_faults            0                       # Number of TLB faults due to domain restrictions
system.cpu.itb.stage2_mmu.stage2_tlb.flush_entries            0                       # Number of entries that have been flushed from TLB
system.cpu.itb.stage2_mmu.stage2_tlb.flush_tlb            0                       # Number of times complete TLB was flushed
system.cpu.itb.stage2_mmu.stage2_tlb.flush_tlb_asid            0                       # Number of times TLB was flushed by ASID
system.cpu.itb.stage2_mmu.stage2_tlb.flush_tlb_mva            0                       # Number of times TLB was flushed by MVA
system.cpu.itb.stage2_mmu.stage2_tlb.flush_tlb_mva_asid            0                       # Number of times TLB was flushed by MVA & ASID
system.cpu.itb.stage2_mmu.stage2_tlb.hits            0                       # DTB hits
system.cpu.itb.stage2_mmu.stage2_tlb.inst_accesses            0                       # ITB inst accesses
system.cpu.itb.stage2_mmu.stage2_tlb.inst_hits            0                       # ITB inst hits
system.cpu.itb.stage2_mmu.stage2_tlb.inst_misses            0                       # ITB inst misses
system.cpu.itb.stage2_mmu.stage2_tlb.misses            0                       # DTB misses
system.cpu.itb.stage2_mmu.stage2_tlb.perms_faults            0                       # Number of TLB faults due to permissions restrictions
system.cpu.itb.stage2_mmu.stage2_tlb.prefetch_faults            0                       # Number of TLB faults due to prefetch
system.cpu.itb.stage2_mmu.stage2_tlb.read_accesses            0                       # DTB read accesses
system.cpu.itb.stage2_mmu.stage2_tlb.read_hits            0                       # DTB read hits
system.cpu.itb.stage2_mmu.stage2_tlb.read_misses            0                       # DTB read misses
system.cpu.itb.stage2_mmu.stage2_tlb.walker.walkRequestOrigin_Requested::Data            0                       # Table walker requests started/completed, data/inst
system.cpu.itb.stage2_mmu.stage2_tlb.walker.walkRequestOrigin_Requested::Inst            0                       # Table walker requests started/completed, data/inst
system.cpu.itb.stage2_mmu.stage2_tlb.walker.walkRequestOrigin_Requested::total            0                       # Table walker requests started/completed, data/inst
system.cpu.itb.stage2_mmu.stage2_tlb.walker.walkRequestOrigin_Completed::Data            0                       # Table walker requests started/completed, data/inst
system.cpu.itb.stage2_mmu.stage2_tlb.walker.walkRequestOrigin_Completed::Inst            0                       # Table walker requests started/completed, data/inst
system.cpu.itb.stage2_mmu.stage2_tlb.walker.walkRequestOrigin_Completed::total            0                       # Table walker requests started/completed, data/inst
system.cpu.itb.stage2_mmu.stage2_tlb.walker.walkRequestOrigin::total            0                       # Table walker requests started/completed, data/inst
system.cpu.itb.stage2_mmu.stage2_tlb.walker.walks            0                       # Table walker walks requested
system.cpu.itb.stage2_mmu.stage2_tlb.write_accesses            0                       # DTB write accesses
system.cpu.itb.stage2_mmu.stage2_tlb.write_hits            0                       # DTB write hits
system.cpu.itb.stage2_mmu.stage2_tlb.write_misses            0                       # DTB write misses
system.cpu.itb.walker.walkRequestOrigin_Requested::Data            0                       # Table walker requests started/completed, data/inst
system.cpu.itb.walker.walkRequestOrigin_Requested::Inst            0                       # Table walker requests started/completed, data/inst
system.cpu.itb.walker.walkRequestOrigin_Requested::total            0                       # Table walker requests started/completed, data/inst
system.cpu.itb.walker.walkRequestOrigin_Completed::Data            0                       # Table walker requests started/completed, data/inst
system.cpu.itb.walker.walkRequestOrigin_Completed::Inst            0                       # Table walker requests started/completed, data/inst
system.cpu.itb.walker.walkRequestOrigin_Completed::total            0                       # Table walker requests started/completed, data/inst
system.cpu.itb.walker.walkRequestOrigin::total            0                       # Table walker requests started/completed, data/inst
system.cpu.itb.walker.walks                         0                       # Table walker walks requested
system.cpu.itb.write_accesses                       0                       # DTB write accesses
system.cpu.itb.write_hits                           0                       # DTB write hits
system.cpu.itb.write_misses                         0                       # DTB write misses
system.cpu.numCycles                         14755773                       # number of cpu cycles simulated
system.cpu.numFetchSuspends                         0                       # Number of times Execute suspended instruction fetching
system.cpu.numWorkItemsCompleted                    0                       # number of work items this cpu completed
system.cpu.numWorkItemsStarted                      0                       # number of work items this cpu started
system.cpu.op_class_0::No_OpClass                   0      0.00%      0.00% # Class of committed instruction
system.cpu.op_class_0::IntAlu                 6896073     62.88%     62.88% # Class of committed instruction
system.cpu.op_class_0::IntMult                 100107      0.91%     63.79% # Class of committed instruction
system.cpu.op_class_0::IntDiv                       0      0.00%     63.79% # Class of committed instruction
system.cpu.op_class_0::FloatAdd                     0      0.00%     63.79% # Class of committed instruction
system.cpu.op_class_0::FloatCmp                     0      0.00%     63.79% # Class of committed instruction
system.cpu.op_class_0::FloatCvt                     0      0.00%     63.79% # Class of committed instruction
system.cpu.op_class_0::FloatMult                    0      0.00%     63.79% # Class of committed instruction
system.cpu.op_class_0::FloatMultAcc                 0      0.00%     63.79% # Class of committed instruction
system.cpu.op_class_0::FloatDiv                     0      0.00%     63.79% # Class of committed instruction
system.cpu.op_class_0::FloatMisc                    0      0.00%     63.79% # Class of committed instruction
system.cpu.op_class_0::FloatSqrt                    0      0.00%     63.79% # Class of committed instruction
system.cpu.op_class_0::SimdAdd                  27020      0.25%     64.04% # Class of committed instruction
system.cpu.op_class_0::SimdAddAcc                   0      0.00%     64.04% # Class of committed instruction
system.cpu.op_class_0::SimdAlu                  16372      0.15%     64.19% # Class of committed instruction
system.cpu.op_class_0::SimdCmp                  13510      0.12%     64.31% # Class of committed instruction
system.cpu.op_class_0::SimdCvt                      0      0.00%     64.31% # Class of committed instruction
system.cpu.op_class_0::SimdMisc                  5414      0.05%     64.36% # Class of committed instruction
system.cpu.op_class_0::SimdMult                     0      0.00%     64.36% # Class of committed instruction
system.cpu.op_class_0::SimdMultAcc                  0      0.00%     64.36% # Class of committed instruction
system.cpu.op_class_0::SimdShift                    0      0.00%     64.36% # Class of committed instruction
system.cpu.op_class_0::SimdShiftAcc                 0      0.00%     64.36% # Class of committed instruction
system.cpu.op_class_0::SimdDiv                      0      0.00%     64.36% # Class of committed instruction
system.cpu.op_class_0::SimdSqrt                     0      0.00%     64.36% # Class of committed instruction
system.cpu.op_class_0::SimdFloatAdd                 0      0.00%     64.36% # Class of committed instruction
system.cpu.op_class_0::SimdFloatAlu                 0      0.00%     64.36% # Class of committed instruction
system.cpu.op_class_0::SimdFloatCmp                 0      0.00%     64.36% # Class of committed instruction
system.cpu.op_class_0::SimdFloatCvt                 0      0.00%     64.36% # Class of committed instruction
system.cpu.op_class_0::SimdFloatDiv                 0      0.00%     64.36% # Class of committed instruction
system.cpu.op_class_0::SimdFloatMisc            19031      0.17%     64.54% # Class of committed instruction
system.cpu.op_class_0::SimdFloatMult                0      0.00%     64.54% # Class of committed instruction
system.cpu.op_class_0::SimdFloatMultAcc             0      0.00%     64.54% # Class of committed instruction
system.cpu.op_class_0::SimdFloatSqrt                0      0.00%     64.54% # Class of committed instruction
system.cpu.op_class_0::SimdReduceAdd                0      0.00%     64.54% # Class of committed instruction
system.cpu.op_class_0::SimdReduceAlu                0      0.00%     64.54% # Class of committed instruction
system.cpu.op_class_0::SimdReduceCmp                0      0.00%     64.54% # Class of committed instruction
system.cpu.op_class_0::SimdFloatReduceAdd            0      0.00%     64.54% # Class of committed instruction
system.cpu.op_class_0::SimdFloatReduceCmp            0      0.00%     64.54% # Class of committed instruction
system.cpu.op_class_0::SimdAes                      0      0.00%     64.54% # Class of committed instruction
system.cpu.op_class_0::SimdAesMix                   0      0.00%     64.54% # Class of committed instruction
system.cpu.op_class_0::SimdSha1Hash                 0      0.00%     64.54% # Class of committed instruction
system.cpu.op_class_0::SimdSha1Hash2                0      0.00%     64.54% # Class of committed instruction
system.cpu.op_class_0::SimdSha256Hash               0      0.00%     64.54% # Class of committed instruction
system.cpu.op_class_0::SimdSha256Hash2              0      0.00%     64.54% # Class of committed instruction
system.cpu.op_class_0::SimdShaSigma2                0      0.00%     64.54% # Class of committed instruction
system.cpu.op_class_0::SimdShaSigma3                0      0.00%     64.54% # Class of committed instruction
system.cpu.op_class_0::SimdPredAlu                  0      0.00%     64.54% # Class of committed instruction
system.cpu.op_class_0::MemRead                2330243     21.25%     85.78% # Class of committed instruction
system.cpu.op_class_0::MemWrite               1559168     14.22%    100.00% # Class of committed instruction
system.cpu.op_class_0::FloatMemRead                 0      0.00%    100.00% # Class of committed instruction
system.cpu.op_class_0::FloatMemWrite                0      0.00%    100.00% # Class of committed instruction
system.cpu.op_class_0::IprAccess                    0      0.00%    100.00% # Class of committed instruction
system.cpu.op_class_0::InstPrefetch                 0      0.00%    100.00% # Class of committed instruction
system.cpu.op_class_0::total                 10966938                       # Class of committed instruction
system.cpu.tickCycles                        12379327                       # Number of cycles that the object actually ticked
system.cpu.workload.numSyscalls                    25                       # Number of system calls
system.membus.snoop_filter.hit_multi_requests            0                       # Number of requests hitting in the snoop filter with multiple (>1) holders of the requested data.
system.membus.snoop_filter.hit_multi_snoops            0                       # Number of snoops hitting in the snoop filter with multiple (>1) holders of the requested data.
system.membus.snoop_filter.hit_single_requests            0                       # Number of requests hitting in the snoop filter with a single holder of the requested data.
system.membus.snoop_filter.hit_single_snoops            0                       # Number of snoops hitting in the snoop filter with a single holder of the requested data.
system.membus.snoop_filter.tot_requests          9321                       # Total number of requests made to the snoop filter.
system.membus.snoop_filter.tot_snoops               0                       # Total number of snoops made to the snoop filter.
system.tol2bus.snoop_filter.hit_multi_requests          179                       # Number of requests hitting in the snoop filter with multiple (>1) holders of the requested data.
system.tol2bus.snoop_filter.hit_multi_snoops            0                       # Number of snoops hitting in the snoop filter with multiple (>1) holders of the requested data.
system.tol2bus.snoop_filter.hit_single_requests       124791                       # Number of requests hitting in the snoop filter with a single holder of the requested data.
system.tol2bus.snoop_filter.hit_single_snoops            0                       # Number of snoops hitting in the snoop filter with a single holder of the requested data.
system.tol2bus.snoop_filter.tot_requests       250055                       # Total number of requests made to the snoop filter.
system.tol2bus.snoop_filter.tot_snoops              0                       # Total number of snoops made to the snoop filter.
system.membus.pwrStateResidencyTicks::UNDEFINED  14755773000                       # Cumulative time (in ticks) in various power states
system.membus.trans_dist::ReadResp                472                       # Transaction distribution
system.membus.trans_dist::ReadExReq              8849                       # Transaction distribution
system.membus.trans_dist::ReadExResp             8849                       # Transaction distribution
system.membus.trans_dist::ReadSharedReq           472                       # Transaction distribution
system.membus.pkt_count_system.l2.mem_side::system.mem_ctrls.port        18642                       # Packet count per connected master and slave (bytes)
system.membus.pkt_count::total                  18642                       # Packet count per connected master and slave (bytes)
system.membus.pkt_size_system.l2.mem_side::system.mem_ctrls.port      1193088                       # Cumulative packet size per connected master and slave (bytes)
system.membus.pkt_size::total                 1193088                       # Cumulative packet size per connected master and slave (bytes)
system.membus.snoops                                0                       # Total snoops (count)
system.membus.snoopTraffic                          0                       # Total snoop traffic (bytes)
system.membus.snoop_fanout::samples              9321                       # Request fanout histogram
system.membus.snoop_fanout::mean                    0                       # Request fanout histogram
system.membus.snoop_fanout::stdev                   0                       # Request fanout histogram
system.membus.snoop_fanout::underflows              0      0.00%      0.00% # Request fanout histogram
system.membus.snoop_fanout::0                    9321    100.00%    100.00% # Request fanout histogram
system.membus.snoop_fanout::1                       0      0.00%    100.00% # Request fanout histogram
system.membus.snoop_fanout::overflows               0      0.00%    100.00% # Request fanout histogram
system.membus.snoop_fanout::min_value               0                       # Request fanout histogram
system.membus.snoop_fanout::max_value               0                       # Request fanout histogram
system.membus.snoop_fanout::total                9321                       # Request fanout histogram
system.membus.respLayer1.occupancy           87822750                       # Layer occupancy (ticks)
system.membus.respLayer1.utilization              0.6                       # Layer utilization (%)
system.membus.reqLayer0.occupancy             9321000                       # Layer occupancy (ticks)
system.membus.reqLayer0.utilization               0.1                       # Layer utilization (%)
system.tol2bus.pwrStateResidencyTicks::UNDEFINED  14755773000                       # Cumulative time (in ticks) in various power states
system.tol2bus.trans_dist::ReadResp            115640                       # Transaction distribution
system.tol2bus.trans_dist::WritebackDirty         9666                       # Transaction distribution
system.tol2bus.trans_dist::WritebackClean       113960                       # Transaction distribution
system.tol2bus.trans_dist::CleanEvict            1161                       # Transaction distribution
system.tol2bus.trans_dist::ReadExReq             9628                       # Transaction distribution
system.tol2bus.trans_dist::ReadExResp            9628                       # Transaction distribution
system.tol2bus.trans_dist::ReadCleanReq        114185                       # Transaction distribution
system.tol2bus.trans_dist::ReadSharedReq         1455                       # Transaction distribution
system.tol2bus.pkt_count_system.cpu.icache.mem_side::system.l2.cpu_side       342330                       # Packet count per connected master and slave (bytes)
system.tol2bus.pkt_count_system.cpu.dcache.mem_side::system.l2.cpu_side        32993                       # Packet count per connected master and slave (bytes)
system.tol2bus.pkt_count::total                375323                       # Packet count per connected master and slave (bytes)
system.tol2bus.pkt_size_system.cpu.icache.mem_side::system.l2.cpu_side     29202560                       # Cumulative packet size per connected master and slave (bytes)
system.tol2bus.pkt_size_system.cpu.dcache.mem_side::system.l2.cpu_side      2655872                       # Cumulative packet size per connected master and slave (bytes)
system.tol2bus.pkt_size::total               31858432                       # Cumulative packet size per connected master and slave (bytes)
system.tol2bus.snoops                               0                       # Total snoops (count)
system.tol2bus.snoopTraffic                         0                       # Total snoop traffic (bytes)
system.tol2bus.snoop_fanout::samples           125268                       # Request fanout histogram
system.tol2bus.snoop_fanout::mean            0.001461                       # Request fanout histogram
system.tol2bus.snoop_fanout::stdev           0.038194                       # Request fanout histogram
system.tol2bus.snoop_fanout::underflows             0      0.00%      0.00% # Request fanout histogram
system.tol2bus.snoop_fanout::0                 125085     99.85%     99.85% # Request fanout histogram
system.tol2bus.snoop_fanout::1                    183      0.15%    100.00% # Request fanout histogram
system.tol2bus.snoop_fanout::2                      0      0.00%    100.00% # Request fanout histogram
system.tol2bus.snoop_fanout::overflows              0      0.00%    100.00% # Request fanout histogram
system.tol2bus.snoop_fanout::min_value              0                       # Request fanout histogram
system.tol2bus.snoop_fanout::max_value              1                       # Request fanout histogram
system.tol2bus.snoop_fanout::total             125268                       # Request fanout histogram
system.tol2bus.reqLayer0.occupancy          744559000                       # Layer occupancy (ticks)
system.tol2bus.reqLayer0.utilization              5.0                       # Layer utilization (%)
system.tol2bus.respLayer1.occupancy          55418996                       # Layer occupancy (ticks)
system.tol2bus.respLayer1.utilization             0.4                       # Layer utilization (%)
system.tol2bus.respLayer0.occupancy         570925000                       # Layer occupancy (ticks)
system.tol2bus.respLayer0.utilization             3.9                       # Layer utilization (%)
system.voltage_domain.voltage                       1                       # Voltage in Volts
system.clk_domain.clock                          1000                       # Clock period in ticks
system.l2.pwrStateResidencyTicks::UNDEFINED  14755773000                       # Cumulative time (in ticks) in various power states
system.l2.demand_hits::.cpu.inst               113852                       # number of demand (read+write) hits
system.l2.demand_hits::.cpu.data                 2091                       # number of demand (read+write) hits
system.l2.demand_hits::total                   115943                       # number of demand (read+write) hits
system.l2.overall_hits::.cpu.inst              113852                       # number of overall hits
system.l2.overall_hits::.cpu.data                2091                       # number of overall hits
system.l2.overall_hits::total                  115943                       # number of overall hits
system.l2.demand_misses::.cpu.inst                333                       # number of demand (read+write) misses
system.l2.demand_misses::.cpu.data               8992                       # number of demand (read+write) misses
system.l2.demand_misses::total                   9325                       # number of demand (read+write) misses
system.l2.overall_misses::.cpu.inst               333                       # number of overall misses
system.l2.overall_misses::.cpu.data              8992                       # number of overall misses
system.l2.overall_misses::total                  9325                       # number of overall misses
system.l2.demand_miss_latency::.cpu.inst     34844000                       # number of demand (read+write) miss cycles
system.l2.demand_miss_latency::.cpu.data    976022000                       # number of demand (read+write) miss cycles
system.l2.demand_miss_latency::total       1010866000                       # number of demand (read+write) miss cycles
system.l2.overall_miss_latency::.cpu.inst     34844000                       # number of overall miss cycles
system.l2.overall_miss_latency::.cpu.data    976022000                       # number of overall miss cycles
system.l2.overall_miss_latency::total      1010866000                       # number of overall miss cycles
system.l2.demand_accesses::.cpu.inst           114185                       # number of demand (read+write) accesses
system.l2.demand_accesses::.cpu.data            11083                       # number of demand (read+write) accesses
system.l2.demand_accesses::total               125268                       # number of demand (read+write) accesses
system.l2.overall_accesses::.cpu.inst          114185                       # number of overall (read+write) accesses
system.l2.overall_accesses::.cpu.data           11083                       # number of overall (read+write) accesses
system.l2.overall_accesses::total              125268                       # number of overall (read+write) accesses
system.l2.demand_miss_rate::.cpu.inst        0.002916                       # miss rate for demand accesses
system.l2.demand_miss_rate::.cpu.data        0.811333                       # miss rate for demand accesses
system.l2.demand_miss_rate::total            0.074440                       # miss rate for demand accesses
system.l2.overall_miss_rate::.cpu.inst       0.002916                       # miss rate for overall accesses
system.l2.overall_miss_rate::.cpu.data       0.811333                       # miss rate for overall accesses
system.l2.overall_miss_rate::total           0.074440                       # miss rate for overall accesses
system.l2.demand_avg_miss_latency::.cpu.inst 104636.636637                       # average overall miss latency
system.l2.demand_avg_miss_latency::.cpu.data 108543.371886                       # average overall miss latency
system.l2.demand_avg_miss_latency::total 108403.860590                       # average overall miss latency
system.l2.overall_avg_miss_latency::.cpu.inst 104636.636637                       # average overall miss latency
system.l2.overall_avg_miss_latency::.cpu.data 108543.371886                       # average overall miss latency
system.l2.overall_avg_miss_latency::total 108403.860590                       # average overall miss latency
system.l2.blocked_cycles::no_mshrs                  0                       # number of cycles access was blocked
system.l2.blocked_cycles::no_targets                0                       # number of cycles access was blocked
system.l2.blocked::no_mshrs                         0                       # number of cycles access was blocked
system.l2.blocked::no_targets                       0                       # number of cycles access was blocked
system.l2.avg_blocked_cycles::no_mshrs            nan                       # average number of cycles each access was blocked
system.l2.avg_blocked_cycles::no_targets          nan                       # average number of cycles each access was blocked
system.l2.demand_mshr_hits::.cpu.data               4                       # number of demand (read+write) MSHR hits
system.l2.demand_mshr_hits::total                   4                       # number of demand (read+write) MSHR hits
system.l2.overall_mshr_hits::.cpu.data              4                       # number of overall MSHR hits
system.l2.overall_mshr_hits::total                  4                       # number of overall MSHR hits
system.l2.demand_mshr_misses::.cpu.inst           333                       # number of demand (read+write) MSHR misses
system.l2.demand_mshr_misses::.cpu.data          8988                       # number of demand (read+write) MSHR misses
system.l2.demand_mshr_misses::total              9321                       # number of demand (read+write) MSHR misses
system.l2.overall_mshr_misses::.cpu.inst          333                       # number of overall MSHR misses
system.l2.overall_mshr_misses::.cpu.data         8988                       # number of overall MSHR misses
system.l2.overall_mshr_misses::total             9321                       # number of overall MSHR misses
system.l2.demand_mshr_miss_latency::.cpu.inst     28184000                       # number of demand (read+write) MSHR miss cycles
system.l2.demand_mshr_miss_latency::.cpu.data    795912000                       # number of demand (read+write) MSHR miss cycles
system.l2.demand_mshr_miss_latency::total    824096000                       # number of demand (read+write) MSHR miss cycles
system.l2.overall_mshr_miss_latency::.cpu.inst     28184000                       # number of overall MSHR miss cycles
system.l2.overall_mshr_miss_latency::.cpu.data    795912000                       # number of overall MSHR miss cycles
system.l2.overall_mshr_miss_latency::total    824096000                       # number of overall MSHR miss cycles
system.l2.demand_mshr_miss_rate::.cpu.inst     0.002916                       # mshr miss rate for demand accesses
system.l2.demand_mshr_miss_rate::.cpu.data     0.810972                       # mshr miss rate for demand accesses
system.l2.demand_mshr_miss_rate::total       0.074408                       # mshr miss rate for demand accesses
system.l2.overall_mshr_miss_rate::.cpu.inst     0.002916                       # mshr miss rate for overall accesses
system.l2.overall_mshr_miss_rate::.cpu.data     0.810972                       # mshr miss rate for overall accesses
system.l2.overall_mshr_miss_rate::total      0.074408                       # mshr miss rate for overall accesses
system.l2.demand_avg_mshr_miss_latency::.cpu.inst 84636.636637                       # average overall mshr miss latency
system.l2.demand_avg_mshr_miss_latency::.cpu.data 88552.736983                       # average overall mshr miss latency
system.l2.demand_avg_mshr_miss_latency::total 88412.831241                       # average overall mshr miss latency
system.l2.overall_avg_mshr_miss_latency::.cpu.inst 84636.636637                       # average overall mshr miss latency
system.l2.overall_avg_mshr_miss_latency::.cpu.data 88552.736983                       # average overall mshr miss latency
system.l2.overall_avg_mshr_miss_latency::total 88412.831241                       # average overall mshr miss latency
system.l2.replacements                              0                       # number of replacements
system.l2.WritebackDirty_hits::.writebacks         9666                       # number of WritebackDirty hits
system.l2.WritebackDirty_hits::total             9666                       # number of WritebackDirty hits
system.l2.WritebackDirty_accesses::.writebacks         9666                       # number of WritebackDirty accesses(hits+misses)
system.l2.WritebackDirty_accesses::total         9666                       # number of WritebackDirty accesses(hits+misses)
system.l2.WritebackClean_hits::.writebacks       113817                       # number of WritebackClean hits
system.l2.WritebackClean_hits::total           113817                       # number of WritebackClean hits
system.l2.WritebackClean_accesses::.writebacks       113817                       # number of WritebackClean accesses(hits+misses)
system.l2.WritebackClean_accesses::total       113817                       # number of WritebackClean accesses(hits+misses)
system.l2.ReadExReq_hits::.cpu.data               779                       # number of ReadExReq hits
system.l2.ReadExReq_hits::total                   779                       # number of ReadExReq hits
system.l2.ReadExReq_misses::.cpu.data            8849                       # number of ReadExReq misses
system.l2.ReadExReq_misses::total                8849                       # number of ReadExReq misses
system.l2.ReadExReq_miss_latency::.cpu.data    960216000                       # number of ReadExReq miss cycles
system.l2.ReadExReq_miss_latency::total     960216000                       # number of ReadExReq miss cycles
system.l2.ReadExReq_accesses::.cpu.data          9628                       # number of ReadExReq accesses(hits+misses)
system.l2.ReadExReq_accesses::total              9628                       # number of ReadExReq accesses(hits+misses)
system.l2.ReadExReq_miss_rate::.cpu.data     0.919090                       # miss rate for ReadExReq accesses
system.l2.ReadExReq_miss_rate::total         0.919090                       # miss rate for ReadExReq accesses
system.l2.ReadExReq_avg_miss_latency::.cpu.data 108511.244208                       # average ReadExReq miss latency
system.l2.ReadExReq_avg_miss_latency::total 108511.244208                       # average ReadExReq miss latency
system.l2.ReadExReq_mshr_misses::.cpu.data         8849                       # number of ReadExReq MSHR misses
system.l2.ReadExReq_mshr_misses::total           8849                       # number of ReadExReq MSHR misses
system.l2.ReadExReq_mshr_miss_latency::.cpu.data    783236000                       # number of ReadExReq MSHR miss cycles
system.l2.ReadExReq_mshr_miss_latency::total    783236000                       # number of ReadExReq MSHR miss cycles
system.l2.ReadExReq_mshr_miss_rate::.cpu.data     0.919090                       # mshr miss rate for ReadExReq accesses
system.l2.ReadExReq_mshr_miss_rate::total     0.919090                       # mshr miss rate for ReadExReq accesses
system.l2.ReadExReq_avg_mshr_miss_latency::.cpu.data 88511.244208                       # average ReadExReq mshr miss latency
system.l2.ReadExReq_avg_mshr_miss_latency::total 88511.244208                       # average ReadExReq mshr miss latency
system.l2.ReadCleanReq_hits::.cpu.inst         113852                       # number of ReadCleanReq hits
system.l2.ReadCleanReq_hits::total             113852                       # number of ReadCleanReq hits
system.l2.ReadCleanReq_misses::.cpu.inst          333                       # number of ReadCleanReq misses
system.l2.ReadCleanReq_misses::total              333                       # number of ReadCleanReq misses
system.l2.ReadCleanReq_miss_latency::.cpu.inst     34844000                       # number of ReadCleanReq miss cycles
system.l2.ReadCleanReq_miss_latency::total     34844000                       # number of ReadCleanReq miss cycles
system.l2.ReadCleanReq_accesses::.cpu.inst       114185                       # number of ReadCleanReq accesses(hits+misses)
system.l2.ReadCleanReq_accesses::total         114185                       # number of ReadCleanReq accesses(hits+misses)
system.l2.ReadCleanReq_miss_rate::.cpu.inst     0.002916                       # miss rate for ReadCleanReq accesses
system.l2.ReadCleanReq_miss_rate::total      0.002916                       # miss rate for ReadCleanReq accesses
system.l2.ReadCleanReq_avg_miss_latency::.cpu.inst 104636.636637                       # average ReadCleanReq miss latency
system.l2.ReadCleanReq_avg_miss_latency::total 104636.636637                       # average ReadCleanReq miss latency
system.l2.ReadCleanReq_mshr_misses::.cpu.inst          333                       # number of ReadCleanReq MSHR misses
system.l2.ReadCleanReq_mshr_misses::total          333                       # number of ReadCleanReq MSHR misses
system.l2.ReadCleanReq_mshr_miss_latency::.cpu.inst     28184000                       # number of ReadCleanReq MSHR miss cycles
system.l2.ReadCleanReq_mshr_miss_latency::total     28184000                       # number of ReadCleanReq MSHR miss cycles
system.l2.ReadCleanReq_mshr_miss_rate::.cpu.inst     0.002916                       # mshr miss rate for ReadCleanReq accesses
system.l2.ReadCleanReq_mshr_miss_rate::total     0.002916                       # mshr miss rate for ReadCleanReq accesses
system.l2.ReadCleanReq_avg_mshr_miss_latency::.cpu.inst 84636.636637                       # average ReadCleanReq mshr miss latency
system.l2.ReadCleanReq_avg_mshr_miss_latency::total 84636.636637                       # average ReadCleanReq mshr miss latency
system.l2.ReadSharedReq_hits::.cpu.data          1312                       # number of ReadSharedReq hits
system.l2.ReadSharedReq_hits::total              1312                       # number of ReadSharedReq hits
system.l2.ReadSharedReq_misses::.cpu.data          143                       # number of ReadSharedReq misses
system.l2.ReadSharedReq_misses::total             143                       # number of ReadSharedReq misses
system.l2.ReadSharedReq_miss_latency::.cpu.data     15806000                       # number of ReadSharedReq miss cycles
system.l2.ReadSharedReq_miss_latency::total     15806000                       # number of ReadSharedReq miss cycles
system.l2.ReadSharedReq_accesses::.cpu.data         1455                       # number of ReadSharedReq accesses(hits+misses)
system.l2.ReadSharedReq_accesses::total          1455                       # number of ReadSharedReq accesses(hits+misses)
system.l2.ReadSharedReq_miss_rate::.cpu.data     0.098282                       # miss rate for ReadSharedReq accesses
system.l2.ReadSharedReq_miss_rate::total     0.098282                       # miss rate for ReadSharedReq accesses
system.l2.ReadSharedReq_avg_miss_latency::.cpu.data 110531.468531                       # average ReadSharedReq miss latency
system.l2.ReadSharedReq_avg_miss_latency::total 110531.468531                       # average ReadSharedReq miss latency
system.l2.ReadSharedReq_mshr_hits::.cpu.data            4                       # number of ReadSharedReq MSHR hits
system.l2.ReadSharedReq_mshr_hits::total            4                       # number of ReadSharedReq MSHR hits
system.l2.ReadSharedReq_mshr_misses::.cpu.data          139                       # number of ReadSharedReq MSHR misses
system.l2.ReadSharedReq_mshr_misses::total          139                       # number of ReadSharedReq MSHR misses
system.l2.ReadSharedReq_mshr_miss_latency::.cpu.data     12676000                       # number of ReadSharedReq MSHR miss cycles
system.l2.ReadSharedReq_mshr_miss_latency::total     12676000                       # number of ReadSharedReq MSHR miss cycles
system.l2.ReadSharedReq_mshr_miss_rate::.cpu.data     0.095533                       # mshr miss rate for ReadSharedReq accesses
system.l2.ReadSharedReq_mshr_miss_rate::total     0.095533                       # mshr miss rate for ReadSharedReq accesses
system.l2.ReadSharedReq_avg_mshr_miss_latency::.cpu.data 91194.244604                       # average ReadSharedReq mshr miss latency
system.l2.ReadSharedReq_avg_mshr_miss_latency::total 91194.244604                       # average ReadSharedReq mshr miss latency
system.l2.tags.pwrStateResidencyTicks::UNDEFINED  14755773000                       # Cumulative time (in ticks) in various power states
system.l2.tags.tagsinuse                  4931.490584                       # Cycle average of tags in use
system.l2.tags.total_refs                      249872                       # Total number of references to valid blocks.
system.l2.tags.sampled_refs                      9321                       # Sample count of references to valid blocks.
system.l2.tags.avg_refs                     26.807424                       # Average number of references to valid blocks.
system.l2.tags.warmup_cycle                     92000                       # Cycle when the warmup percentage was hit.
system.l2.tags.occ_blocks::.cpu.inst       332.261123                       # Average occupied blocks per requestor
system.l2.tags.occ_blocks::.cpu.data      4599.229461                       # Average occupied blocks per requestor
system.l2.tags.occ_percent::.cpu.inst        0.010140                       # Average percentage of cache occupancy
system.l2.tags.occ_percent::.cpu.data        0.140357                       # Average percentage of cache occupancy
system.l2.tags.occ_percent::total            0.150497                       # Average percentage of cache occupancy
system.l2.tags.occ_task_id_blocks::1024          9321                       # Occupied blocks per task id
system.l2.tags.age_task_id_blocks_1024::0            6                       # Occupied blocks per task id
system.l2.tags.age_task_id_blocks_1024::1           52                       # Occupied blocks per task id
system.l2.tags.age_task_id_blocks_1024::2          522                       # Occupied blocks per task id
system.l2.tags.age_task_id_blocks_1024::3         5378                       # Occupied blocks per task id
system.l2.tags.age_task_id_blocks_1024::4         3363                       # Occupied blocks per task id
system.l2.tags.occ_task_id_percent::1024     0.284454                       # Percentage of cache occupancy per task id
system.l2.tags.tag_accesses                   2008329                       # Number of tag accesses
system.l2.tags.data_accesses                  2008329                       # Number of data accesses
system.cpu_voltage_domain.voltage                   1                       # Voltage in Volts
system.mem_ctrls.pwrStateResidencyTicks::UNDEFINED  14755773000                       # Cumulative time (in ticks) in various power states
system.mem_ctrls.bytes_read::.cpu.inst          42624                       # Number of bytes read from this memory
system.mem_ctrls.bytes_read::.cpu.data        1150464                       # Number of bytes read from this memory
system.mem_ctrls.bytes_read::total            1193088                       # Number of bytes read from this memory
system.mem_ctrls.bytes_inst_read::.cpu.inst        42624                       # Number of instructions bytes read from this memory
system.mem_ctrls.bytes_inst_read::total         42624                       # Number of instructions bytes read from this memory
system.mem_ctrls.num_reads::.cpu.inst             333                       # Number of read requests responded to by this memory
system.mem_ctrls.num_reads::.cpu.data            8988                       # Number of read requests responded to by this memory
system.mem_ctrls.num_reads::total                9321                       # Number of read requests responded to by this memory
system.mem_ctrls.bw_read::.cpu.inst           2888632                       # Total read bandwidth from this memory (bytes/s)
system.mem_ctrls.bw_read::.cpu.data          77967044                       # Total read bandwidth from this memory (bytes/s)
system.mem_ctrls.bw_read::total              80855676                       # Total read bandwidth from this memory (bytes/s)
system.mem_ctrls.bw_inst_read::.cpu.inst      2888632                       # Instruction read bandwidth from this memory (bytes/s)
system.mem_ctrls.bw_inst_read::total          2888632                       # Instruction read bandwidth from this memory (bytes/s)
system.mem_ctrls.bw_total::.cpu.inst          2888632                       # Total bandwidth to/from this memory (bytes/s)
system.mem_ctrls.bw_total::.cpu.data         77967044                       # Total bandwidth to/from this memory (bytes/s)
system.mem_ctrls.bw_total::total             80855676                       # Total bandwidth to/from this memory (bytes/s)
system.mem_ctrls.avgPriority_.cpu.inst::samples       666.00                       # Average QoS priority value for accepted requests
system.mem_ctrls.avgPriority_.cpu.data::samples     17976.00                       # Average QoS priority value for accepted requests
system.mem_ctrls.priorityMinLatency      0.000000018750                       # per QoS priority minimum request to response latency (s)
system.mem_ctrls.priorityMaxLatency      0.000000677500                       # per QoS priority maximum request to response latency (s)
system.mem_ctrls.numReadWriteTurnArounds            0                       # Number of turnarounds from READ to WRITE
system.mem_ctrls.numWriteReadTurnArounds            0                       # Number of turnarounds from WRITE to READ
system.mem_ctrls.numStayReadState               31748                       # Number of times bus staying in READ state
system.mem_ctrls.numStayWriteState                  0                       # Number of times bus staying in WRITE state
system.mem_ctrls.readReqs                        9321                       # Number of read requests accepted
system.mem_ctrls.writeReqs                          0                       # Number of write requests accepted
system.mem_ctrls.readBursts                     18642                       # Number of DRAM read bursts, including those serviced by the write queue
system.mem_ctrls.writeBursts                        0                       # Number of DRAM write bursts, including those merged in the write queue
system.mem_ctrls.servicedByWrQ                      0                       # Number of DRAM read bursts serviced by the write queue
system.mem_ctrls.mergedWrBursts                     0                       # Number of DRAM write bursts merged with an existing one
system.mem_ctrls.neitherReadNorWriteReqs            0                       # Number of requests that are neither read nor write
system.mem_ctrls.perBankRdBursts::0              1224                       # Per bank write bursts
system.mem_ctrls.perBankRdBursts::1              1080                       # Per bank write bursts
system.mem_ctrls.perBankRdBursts::2              1058                       # Per bank write bursts
system.mem_ctrls.perBankRdBursts::3              1254                       # Per bank write bursts
system.mem_ctrls.perBankRdBursts::4              1266                       # Per bank write bursts
system.mem_ctrls.perBankRdBursts::5              1156                       # Per bank write bursts
system.mem_ctrls.perBankRdBursts::6              1152                       # Per bank write bursts
system.mem_ctrls.perBankRdBursts::7              1188                       # Per bank write bursts
system.mem_ctrls.perBankRdBursts::8              1054                       # Per bank write bursts
system.mem_ctrls.perBankRdBursts::9              1092                       # Per bank write bursts
system.mem_ctrls.perBankRdBursts::10             1074                       # Per bank write bursts
system.mem_ctrls.perBankRdBursts::11             1116                       # Per bank write bursts
system.mem_ctrls.perBankRdBursts::12             1236                       # Per bank write bursts
system.mem_ctrls.perBankRdBursts::13             1186                       # Per bank write bursts
system.mem_ctrls.perBankRdBursts::14             1288                       # Per bank write bursts
system.mem_ctrls.perBankRdBursts::15             1218                       # Per bank write bursts
system.mem_ctrls.perBankWrBursts::0                 0                       # Per bank write bursts
system.mem_ctrls.perBankWrBursts::1                 0                       # Per bank write bursts
system.mem_ctrls.perBankWrBursts::2                 0                       # Per bank write bursts
system.mem_ctrls.perBankWrBursts::3                 0                       # Per bank write bursts
system.mem_ctrls.perBankWrBursts::4                 0                       # Per bank write bursts
system.mem_ctrls.perBankWrBursts::5                 0                       # Per bank write bursts
system.mem_ctrls.perBankWrBursts::6                 0                       # Per bank write bursts
system.mem_ctrls.perBankWrBursts::7                 0                       # Per bank write bursts
system.mem_ctrls.perBankWrBursts::8                 0                       # Per bank write bursts
system.mem_ctrls.perBankWrBursts::9                 0                       # Per bank write bursts
system.mem_ctrls.perBankWrBursts::10                0                       # Per bank write bursts
system.mem_ctrls.perBankWrBursts::11                0                       # Per bank write bursts
system.mem_ctrls.perBankWrBursts::12                0                       # Per bank write bursts
system.mem_ctrls.perBankWrBursts::13                0                       # Per bank write bursts
system.mem_ctrls.perBankWrBursts::14                0                       # Per bank write bursts
system.mem_ctrls.perBankWrBursts::15                0                       # Per bank write bursts
system.mem_ctrls.avgRdQLen                       2.00                       # Average read queue length when enqueuing
system.mem_ctrls.avgWrQLen                       0.00                       # Average write queue length when enqueuing
system.mem_ctrls.totQLat                    293136250                       # Total ticks spent queuing
system.mem_ctrls.totBusLat                   93210000                       # Total ticks spent in databus transfers
system.mem_ctrls.totMemAccLat               642673750                       # Total ticks spent from burst creation until serviced by the DRAM
system.mem_ctrls.avgQLat                     15724.51                       # Average queueing delay per DRAM burst
system.mem_ctrls.avgBusLat                    5000.00                       # Average bus latency per DRAM burst
system.mem_ctrls.avgMemAccLat                34474.51                       # Average memory access latency per DRAM burst
system.mem_ctrls.numRdRetry                         0                       # Number of times read queue was full causing retry
system.mem_ctrls.numWrRetry                         0                       # Number of times write queue was full causing retry
system.mem_ctrls.readRowHits                    12581                       # Number of row buffer hits during reads
system.mem_ctrls.writeRowHits                       0                       # Number of row buffer hits during writes
system.mem_ctrls.readRowHitRate                 67.49                       # Row buffer hit rate for reads
system.mem_ctrls.writeRowHitRate                  nan                       # Row buffer hit rate for writes
system.mem_ctrls.readPktSize::0                     0                       # Read request sizes (log2)
system.mem_ctrls.readPktSize::1                     0                       # Read request sizes (log2)
system.mem_ctrls.readPktSize::2                     0                       # Read request sizes (log2)
system.mem_ctrls.readPktSize::3                     0                       # Read request sizes (log2)
system.mem_ctrls.readPktSize::4                     0                       # Read request sizes (log2)
system.mem_ctrls.readPktSize::5                     0                       # Read request sizes (log2)
system.mem_ctrls.readPktSize::6                 18642                       # Read request sizes (log2)
system.mem_ctrls.writePktSize::0                    0                       # Write request sizes (log2)
system.mem_ctrls.writePktSize::1                    0                       # Write request sizes (log2)
system.mem_ctrls.writePktSize::2                    0                       # Write request sizes (log2)
system.mem_ctrls.writePktSize::3                    0                       # Write request sizes (log2)
system.mem_ctrls.writePktSize::4                    0                       # Write request sizes (log2)
system.mem_ctrls.writePktSize::5                    0                       # Write request sizes (log2)
system.mem_ctrls.writePktSize::6                    0                       # Write request sizes (log2)
system.mem_ctrls.rdQLenPdf::0                    9265                       # What read queue length does an incoming req see
system.mem_ctrls.rdQLenPdf::1                    9269                       # What read queue length does an incoming req see
system.mem_ctrls.rdQLenPdf::2                      53                       # What read queue length does an incoming req see
system.mem_ctrls.rdQLenPdf::3                      50                       # What read queue length does an incoming req see
system.mem_ctrls.rdQLenPdf::4                       3                       # What read queue length does an incoming req see
system.mem_ctrls.rdQLenPdf::5                       2                       # What read queue length does an incoming req see
system.mem_ctrls.rdQLenPdf::6                       0                       # What read queue length does an incoming req see
system.mem_ctrls.rdQLenPdf::7                       0                       # What read queue length does an incoming req see
system.mem_ctrls.rdQLenPdf::8                       0                       # What read queue length does an incoming req see
system.mem_ctrls.rdQLenPdf::9                       0                       # What read queue length does an incoming req see
system.mem_ctrls.rdQLenPdf::10                      0                       # What read queue length does an incoming req see
system.mem_ctrls.rdQLenPdf::11                      0                       # What read queue length does an incoming req see
system.mem_ctrls.rdQLenPdf::12                      0                       # What read queue length does an incoming req see
system.mem_ctrls.rdQLenPdf::13                      0                       # What read queue length does an incoming req see
system.mem_ctrls.rdQLenPdf::14                      0                       # What read queue length does an incoming req see
system.mem_ctrls.rdQLenPdf::15                      0                       # What read queue length does an incoming req see
system.mem_ctrls.rdQLenPdf::16                      0                       # What read queue length does an incoming req see
system.mem_ctrls.rdQLenPdf::17                      0                       # What read queue length does an incoming req see
system.mem_ctrls.rdQLenPdf::18                      0                       # What read queue length does an incoming req see
system.mem_ctrls.rdQLenPdf::19                      0                       # What read queue length does an incoming req see
system.mem_ctrls.rdQLenPdf::20                      0                       # What read queue length does an incoming req see
system.mem_ctrls.rdQLenPdf::21                      0                       # What read queue length does an incoming req see
system.mem_ctrls.rdQLenPdf::22                      0                       # What read queue length does an incoming req see
system.mem_ctrls.rdQLenPdf::23                      0                       # What read queue length does an incoming req see
system.mem_ctrls.rdQLenPdf::24                      0                       # What read queue length does an incoming req see
system.mem_ctrls.rdQLenPdf::25                      0                       # What read queue length does an incoming req see
system.mem_ctrls.rdQLenPdf::26                      0                       # What read queue length does an incoming req see
system.mem_ctrls.rdQLenPdf::27                      0                       # What read queue length does an incoming req see
system.mem_ctrls.rdQLenPdf::28                      0                       # What read queue length does an incoming req see
system.mem_ctrls.rdQLenPdf::29                      0                       # What read queue length does an incoming req see
system.mem_ctrls.rdQLenPdf::30                      0                       # What read queue length does an incoming req see
system.mem_ctrls.rdQLenPdf::31                      0                       # What read queue length does an incoming req see
system.mem_ctrls.wrQLenPdf::0                       0                       # What write queue length does an incoming req see
system.mem_ctrls.wrQLenPdf::1                       0                       # What write queue length does an incoming req see
system.mem_ctrls.wrQLenPdf::2                       0                       # What write queue length does an incoming req see
system.mem_ctrls.wrQLenPdf::3                       0                       # What write queue length does an incoming req see
system.mem_ctrls.wrQLenPdf::4                       0                       # What write queue length does an incoming req see
system.mem_ctrls.wrQLenPdf::5                       0                       # What write queue length does an incoming req see
system.mem_ctrls.wrQLenPdf::6                       0                       # What write queue length does an incoming req see
system.mem_ctrls.wrQLenPdf::7                       0                       # What write queue length does an incoming req see
system.mem_ctrls.wrQLenPdf::8                       0                       # What write queue length does an incoming req see
system.mem_ctrls.wrQLenPdf::9                       0                       # What write queue length does an incoming req see
system.mem_ctrls.wrQLenPdf::10                      0                       # What write queue length does an incoming req see
system.mem_ctrls.wrQLenPdf::11                      0                       # What write queue length does an incoming req see
system.mem_ctrls.wrQLenPdf::12                      0                       # What write queue length does an incoming req see
system.mem_ctrls.wrQLenPdf::13                      0                       # What write queue length does an incoming req see
system.mem_ctrls.wrQLenPdf::14                      0                       # What write queue length does an incoming req see
system.mem_ctrls.wrQLenPdf::15                      0                       # What write queue length does an incoming req see
system.mem_ctrls.wrQLenPdf::16                      0                       # What write queue length does an incoming req see
system.mem_ctrls.wrQLenPdf::17                      0                       # What write queue length does an incoming req see
system.mem_ctrls.wrQLenPdf::18                      0                       # What write queue length does an incoming req see
system.mem_ctrls.wrQLenPdf::19                      0                       # What write queue length does an incoming req see
system.mem_ctrls.wrQLenPdf::20                      0                       # What write queue length does an incoming req see
system.mem_ctrls.wrQLenPdf::21                      0                       # What write queue length does an incoming req see
system.mem_ctrls.wrQLenPdf::22                      0                       # What write queue length does an incoming req see
system.mem_ctrls.wrQLenPdf::23                      0                       # What write queue length does an incoming req see
system.mem_ctrls.wrQLenPdf::24                      0                       # What write queue length does an incoming req see
system.mem_ctrls.wrQLenPdf::25                      0                       # What write queue length does an incoming req see
system.mem_ctrls.wrQLenPdf::26                      0                       # What write queue length does an incoming req see
system.mem_ctrls.wrQLenPdf::27                      0                       # What write queue length does an incoming req see
system.mem_ctrls.wrQLenPdf::28                      0                       # What write queue length does an incoming req see
system.mem_ctrls.wrQLenPdf::29                      0                       # What write queue length does an incoming req see
system.mem_ctrls.wrQLenPdf::30                      0                       # What write queue length does an incoming req see
system.mem_ctrls.wrQLenPdf::31                      0                       # What write queue length does an incoming req see
system.mem_ctrls.wrQLenPdf::32                      0                       # What write queue length does an incoming req see
system.mem_ctrls.wrQLenPdf::33                      0                       # What write queue length does an incoming req see
system.mem_ctrls.wrQLenPdf::34                      0                       # What write queue length does an incoming req see
system.mem_ctrls.wrQLenPdf::35                      0                       # What write queue length does an incoming req see
system.mem_ctrls.wrQLenPdf::36                      0                       # What write queue length does an incoming req see
system.mem_ctrls.wrQLenPdf::37                      0                       # What write queue length does an incoming req see
system.mem_ctrls.wrQLenPdf::38                      0                       # What write queue length does an incoming req see
system.mem_ctrls.wrQLenPdf::39                      0                       # What write queue length does an incoming req see
system.mem_ctrls.wrQLenPdf::40                      0                       # What write queue length does an incoming req see
system.mem_ctrls.wrQLenPdf::41                      0                       # What write queue length does an incoming req see
system.mem_ctrls.wrQLenPdf::42                      0                       # What write queue length does an incoming req see
system.mem_ctrls.wrQLenPdf::43                      0                       # What write queue length does an incoming req see
system.mem_ctrls.wrQLenPdf::44                      0                       # What write queue length does an incoming req see
system.mem_ctrls.wrQLenPdf::45                      0                       # What write queue length does an incoming req see
system.mem_ctrls.wrQLenPdf::46                      0                       # What write queue length does an incoming req see
system.mem_ctrls.wrQLenPdf::47                      0                       # What write queue length does an incoming req see
system.mem_ctrls.wrQLenPdf::48                      0                       # What write queue length does an incoming req see
system.mem_ctrls.wrQLenPdf::49                      0                       # What write queue length does an incoming req see
system.mem_ctrls.wrQLenPdf::50                      0                       # What write queue length does an incoming req see
system.mem_ctrls.wrQLenPdf::51                      0                       # What write queue length does an incoming req see
system.mem_ctrls.wrQLenPdf::52                      0                       # What write queue length does an incoming req see
system.mem_ctrls.wrQLenPdf::53                      0                       # What write queue length does an incoming req see
system.mem_ctrls.wrQLenPdf::54                      0                       # What write queue length does an incoming req see
system.mem_ctrls.wrQLenPdf::55                      0                       # What write queue length does an incoming req see
system.mem_ctrls.wrQLenPdf::56                      0                       # What write queue length does an incoming req see
system.mem_ctrls.wrQLenPdf::57                      0                       # What write queue length does an incoming req see
system.mem_ctrls.wrQLenPdf::58                      0                       # What write queue length does an incoming req see
system.mem_ctrls.wrQLenPdf::59                      0                       # What write queue length does an incoming req see
system.mem_ctrls.wrQLenPdf::60                      0                       # What write queue length does an incoming req see
system.mem_ctrls.wrQLenPdf::61                      0                       # What write queue length does an incoming req see
system.mem_ctrls.wrQLenPdf::62                      0                       # What write queue length does an incoming req see
system.mem_ctrls.wrQLenPdf::63                      0                       # What write queue length does an incoming req see
system.mem_ctrls.bytesPerActivate::samples         6061                       # Bytes accessed per row activation
system.mem_ctrls.bytesPerActivate::mean    196.846725                       # Bytes accessed per row activation
system.mem_ctrls.bytesPerActivate::gmean   180.283263                       # Bytes accessed per row activation
system.mem_ctrls.bytesPerActivate::stdev    94.256520                       # Bytes accessed per row activation
system.mem_ctrls.bytesPerActivate::0-127            2      0.03%      0.03% # Bytes accessed per row activation
system.mem_ctrls.bytesPerActivate::128-255         3345     55.19%     55.22% # Bytes accessed per row activation
system.mem_ctrls.bytesPerActivate::256-383         2303     38.00%     93.22% # Bytes accessed per row activation
system.mem_ctrls.bytesPerActivate::384-511          365      6.02%     99.24% # Bytes accessed per row activation
system.mem_ctrls.bytesPerActivate::512-639           16      0.26%     99.51% # Bytes accessed per row activation
system.mem_ctrls.bytesPerActivate::640-767            8      0.13%     99.64% # Bytes accessed per row activation
system.mem_ctrls.bytesPerActivate::768-895            2      0.03%     99.67% # Bytes accessed per row activation
system.mem_ctrls.bytesPerActivate::896-1023            2      0.03%     99.70% # Bytes accessed per row activation
system.mem_ctrls.bytesPerActivate::1024-1151           18      0.30%    100.00% # Bytes accessed per row activation
system.mem_ctrls.bytesPerActivate::total         6061                       # Bytes accessed per row activation
system.mem_ctrls.bytesReadDRAM                1193088                       # Total number of bytes read from DRAM
system.mem_ctrls.bytesReadWrQ                       0                       # Total number of bytes read from write queue
system.mem_ctrls.bytesWritten                       0                       # Total number of bytes written to DRAM
system.mem_ctrls.bytesReadSys                 1193088                       # Total read bytes from the system interface side
system.mem_ctrls.bytesWrittenSys                    0                       # Total written bytes from the system interface side
system.mem_ctrls.avgRdBW                        80.86                       # Average DRAM read bandwidth in MiByte/s
system.mem_ctrls.avgWrBW                         0.00                       # Average achieved write bandwidth in MiByte/s
system.mem_ctrls.avgRdBWSys                     80.86                       # Average system read bandwidth in MiByte/s
system.mem_ctrls.avgWrBWSys                      0.00                       # Average system write bandwidth in MiByte/s
system.mem_ctrls.peakBW                      12800.00                       # Theoretical peak bandwidth in MiByte/s
system.mem_ctrls.busUtil                         0.63                       # Data bus utilization in percentage
system.mem_ctrls.busUtilRead                     0.63                       # Data bus utilization in percentage for reads
system.mem_ctrls.busUtilWrite                    0.00                       # Data bus utilization in percentage for writes
system.mem_ctrls.totGap                   14753632000                       # Total gap between requests
system.mem_ctrls.avgGap                    1582837.89                       # Average gap between requests
system.mem_ctrls.masterReadBytes::.cpu.inst        42624                       # Per-master bytes read from memory
system.mem_ctrls.masterReadBytes::.cpu.data      1150464                       # Per-master bytes read from memory
system.mem_ctrls.masterReadRate::.cpu.inst 2888632.130624400452                       # Per-master bytes read from memory rate (Bytes/sec)
system.mem_ctrls.masterReadRate::.cpu.data 77967043.813970297575                       # Per-master bytes read from memory rate (Bytes/sec)
system.mem_ctrls.masterReadAccesses::.cpu.inst          666                       # Per-master read serviced memory accesses
system.mem_ctrls.masterReadAccesses::.cpu.data        17976                       # Per-master read serviced memory accesses
system.mem_ctrls.masterReadTotalLat::.cpu.inst     20515500                       # Per-master read total memory access latency
system.mem_ctrls.masterReadTotalLat::.cpu.data    622158250                       # Per-master read total memory access latency
system.mem_ctrls.masterReadAvgLat::.cpu.inst     30804.05                       # Per-master read average memory access latency
system.mem_ctrls.masterReadAvgLat::.cpu.data     34610.49                       # Per-master read average memory access latency
system.mem_ctrls.pageHitRate                    67.49                       # Row buffer hit rate, read and write combined
system.mem_ctrls.rank1.actEnergy             21205800                       # Energy for activate commands per rank (pJ)
[...]
system.cpu.icache.ReadReq_mshr_miss_latency::.cpu.inst   2803004000                       # number of ReadReq MSHR miss cycles
system.cpu.icache.ReadReq_mshr_miss_latency::total   2803004000                       # number of ReadReq MSHR miss cycles
system.cpu.icache.ReadReq_mshr_miss_rate::.cpu.inst     0.045885                       # mshr miss rate for ReadReq accesses
system.cpu.icache.ReadReq_mshr_miss_rate::total     0.045885                       # mshr miss rate for ReadReq accesses
system.cpu.icache.ReadReq_avg_mshr_miss_latency::.cpu.inst 24547.917853                       # average ReadReq mshr miss latency
system.cpu.icache.ReadReq_avg_mshr_miss_latency::total 24547.917853                       # average ReadReq mshr miss latency
system.cpu.icache.tags.pwrStateResidencyTicks::UNDEFINED  14755773000                       # Cumulative time (in ticks) in various power states
system.cpu.icache.tags.tagsinuse           224.595473                       # Cycle average of tags in use
system.cpu.icache.tags.total_refs             2488525                       # Total number of references to valid blocks.
system.cpu.icache.tags.sampled_refs            114185                       # Sample count of references to valid blocks.
system.cpu.icache.tags.avg_refs             21.793800                       # Average number of references to valid blocks.
system.cpu.icache.tags.warmup_cycle            113000                       # Cycle when the warmup percentage was hit.
system.cpu.icache.tags.occ_blocks::.cpu.inst   224.595473                       # Average occupied blocks per requestor
system.cpu.icache.tags.occ_percent::.cpu.inst     0.877326                       # Average percentage of cache occupancy
system.cpu.icache.tags.occ_percent::total     0.877326                       # Average percentage of cache occupancy
system.cpu.icache.tags.occ_task_id_blocks::1024          225                       # Occupied blocks per task id
system.cpu.icache.tags.age_task_id_blocks_1024::0           14                       # Occupied blocks per task id
system.cpu.icache.tags.age_task_id_blocks_1024::2            1                       # Occupied blocks per task id
system.cpu.icache.tags.age_task_id_blocks_1024::3            5                       # Occupied blocks per task id
system.cpu.icache.tags.age_task_id_blocks_1024::4          205                       # Occupied blocks per task id
system.cpu.icache.tags.occ_task_id_percent::1024     0.878906                       # Percentage of cache occupancy per task id
system.cpu.icache.tags.tag_accesses           5091235                       # Number of tag accesses
system.cpu.icache.tags.data_accesses          5091235                       # Number of data accesses
system.cpu.dtb.walker.pwrStateResidencyTicks::UNDEFINED  14755773000                       # Cumulative time (in ticks) in various power states
system.cpu.dtb.stage2_mmu.stage2_tlb.walker.pwrStateResidencyTicks::UNDEFINED  14755773000                       # Cumulative time (in ticks) in various power states
system.cpu.dcache.pwrStateResidencyTicks::UNDEFINED  14755773000                       # Cumulative time (in ticks) in various power states
system.cpu.dcache.demand_hits::.cpu.data      3808696                       # number of demand (read+write) hits
system.cpu.dcache.demand_hits::total          3808696                       # number of demand (read+write) hits
system.cpu.dcache.overall_hits::.cpu.data      3808739                       # number of overall hits
system.cpu.dcache.overall_hits::total         3808739                       # number of overall hits
system.cpu.dcache.demand_misses::.cpu.data        19459                       # number of demand (read+write) misses
system.cpu.dcache.demand_misses::total          19459                       # number of demand (read+write) misses
system.cpu.dcache.overall_misses::.cpu.data        19471                       # number of overall misses
system.cpu.dcache.overall_misses::total         19471                       # number of overall misses
system.cpu.dcache.demand_miss_latency::.cpu.data   1737254000                       # number of demand (read+write) miss cycles
system.cpu.dcache.demand_miss_latency::total   1737254000                       # number of demand (read+write) miss cycles
system.cpu.dcache.overall_miss_latency::.cpu.data   1737254000                       # number of overall miss cycles
system.cpu.dcache.overall_miss_latency::total   1737254000                       # number of overall miss cycles
system.cpu.dcache.demand_accesses::.cpu.data      3828155                       # number of demand (read+write) accesses
system.cpu.dcache.demand_accesses::total      3828155                       # number of demand (read+write) accesses
system.cpu.dcache.overall_accesses::.cpu.data      3828210                       # number of overall (read+write) accesses
system.cpu.dcache.overall_accesses::total      3828210                       # number of overall (read+write) accesses
system.cpu.dcache.demand_miss_rate::.cpu.data     0.005083                       # miss rate for demand accesses
system.cpu.dcache.demand_miss_rate::total     0.005083                       # miss rate for demand accesses
system.cpu.dcache.overall_miss_rate::.cpu.data     0.005086                       # miss rate for overall accesses
system.cpu.dcache.overall_miss_rate::total     0.005086                       # miss rate for overall accesses
system.cpu.dcache.demand_avg_miss_latency::.cpu.data 89277.660723                       # average overall miss latency
system.cpu.dcache.demand_avg_miss_latency::total 89277.660723                       # average overall miss latency
system.cpu.dcache.overall_avg_miss_latency::.cpu.data 89222.638796                       # average overall miss latency
system.cpu.dcache.overall_avg_miss_latency::total 89222.638796                       # average overall miss latency
system.cpu.dcache.blocked_cycles::no_mshrs            0                       # number of cycles access was blocked
system.cpu.dcache.blocked_cycles::no_targets            0                       # number of cycles access was blocked
system.cpu.dcache.blocked::no_mshrs                 0                       # number of cycles access was blocked
system.cpu.dcache.blocked::no_targets               0                       # number of cycles access was blocked
system.cpu.dcache.avg_blocked_cycles::no_mshrs          nan                       # average number of cycles each access was blocked
system.cpu.dcache.avg_blocked_cycles::no_targets          nan                       # average number of cycles each access was blocked
system.cpu.dcache.writebacks::.writebacks         9666                       # number of writebacks
system.cpu.dcache.writebacks::total              9666                       # number of writebacks
system.cpu.dcache.demand_mshr_hits::.cpu.data         8384                       # number of demand (read+write) MSHR hits
system.cpu.dcache.demand_mshr_hits::total         8384                       # number of demand (read+write) MSHR hits
system.cpu.dcache.overall_mshr_hits::.cpu.data         8384                       # number of overall MSHR hits
system.cpu.dcache.overall_mshr_hits::total         8384                       # number of overall MSHR hits
system.cpu.dcache.demand_mshr_misses::.cpu.data        11075                       # number of demand (read+write) MSHR misses
system.cpu.dcache.demand_mshr_misses::total        11075                       # number of demand (read+write) MSHR misses
system.cpu.dcache.overall_mshr_misses::.cpu.data        11083                       # number of overall MSHR misses
system.cpu.dcache.overall_mshr_misses::total        11083                       # number of overall MSHR misses
system.cpu.dcache.demand_mshr_miss_latency::.cpu.data   1058353000                       # number of demand (read+write) MSHR miss cycles
system.cpu.dcache.demand_mshr_miss_latency::total   1058353000                       # number of demand (read+write) MSHR miss cycles
system.cpu.dcache.overall_mshr_miss_latency::.cpu.data   1059279000                       # number of overall MSHR miss cycles
system.cpu.dcache.overall_mshr_miss_latency::total   1059279000                       # number of overall MSHR miss cycles
system.cpu.dcache.demand_mshr_miss_rate::.cpu.data     0.002893                       # mshr miss rate for demand accesses
system.cpu.dcache.demand_mshr_miss_rate::total     0.002893                       # mshr miss rate for demand accesses
system.cpu.dcache.overall_mshr_miss_rate::.cpu.data     0.002895                       # mshr miss rate for overall accesses
system.cpu.dcache.overall_mshr_miss_rate::total     0.002895                       # mshr miss rate for overall accesses
system.cpu.dcache.demand_avg_mshr_miss_latency::.cpu.data 95562.347630                       # average overall mshr miss latency
system.cpu.dcache.demand_avg_mshr_miss_latency::total 95562.347630                       # average overall mshr miss latency
system.cpu.dcache.overall_avg_mshr_miss_latency::.cpu.data 95576.919607                       # average overall mshr miss latency
system.cpu.dcache.overall_avg_mshr_miss_latency::total 95576.919607                       # average overall mshr miss latency
system.cpu.dcache.replacements                  10827                       # number of replacements
system.cpu.dcache.ReadReq_hits::.cpu.data      2298354                       # number of ReadReq hits
system.cpu.dcache.ReadReq_hits::total         2298354                       # number of ReadReq hits
system.cpu.dcache.ReadReq_misses::.cpu.data         1792                       # number of ReadReq misses
system.cpu.dcache.ReadReq_misses::total          1792                       # number of ReadReq misses
system.cpu.dcache.ReadReq_miss_latency::.cpu.data     66300000                       # number of ReadReq miss cycles
system.cpu.dcache.ReadReq_miss_latency::total     66300000                       # number of ReadReq miss cycles
system.cpu.dcache.ReadReq_accesses::.cpu.data      2300146                       # number of ReadReq accesses(hits+misses)
system.cpu.dcache.ReadReq_accesses::total      2300146                       # number of ReadReq accesses(hits+misses)
system.cpu.dcache.ReadReq_miss_rate::.cpu.data     0.000779                       # miss rate for ReadReq accesses
system.cpu.dcache.ReadReq_miss_rate::total     0.000779                       # miss rate for ReadReq accesses
system.cpu.dcache.ReadReq_avg_miss_latency::.cpu.data 36997.767857                       # average ReadReq miss latency
system.cpu.dcache.ReadReq_avg_miss_latency::total 36997.767857                       # average ReadReq miss latency
system.cpu.dcache.ReadReq_mshr_hits::.cpu.data          345                       # number of ReadReq MSHR hits
system.cpu.dcache.ReadReq_mshr_hits::total          345                       # number of ReadReq MSHR hits
system.cpu.dcache.ReadReq_mshr_misses::.cpu.data         1447                       # number of ReadReq MSHR misses
system.cpu.dcache.ReadReq_mshr_misses::total         1447                       # number of ReadReq MSHR misses
system.cpu.dcache.ReadReq_mshr_miss_latency::.cpu.data     46890000                       # number of ReadReq MSHR miss cycles
system.cpu.dcache.ReadReq_mshr_miss_latency::total     46890000                       # number of ReadReq MSHR miss cycles
system.cpu.dcache.ReadReq_mshr_miss_rate::.cpu.data     0.000629                       # mshr miss rate for ReadReq accesses
system.cpu.dcache.ReadReq_mshr_miss_rate::total     0.000629                       # mshr miss rate for ReadReq accesses
system.cpu.dcache.ReadReq_avg_mshr_miss_latency::.cpu.data 32404.975812                       # average ReadReq mshr miss latency
system.cpu.dcache.ReadReq_avg_mshr_miss_latency::total 32404.975812                       # average ReadReq mshr miss latency
system.cpu.dcache.WriteReq_hits::.cpu.data      1510342                       # number of WriteReq hits
system.cpu.dcache.WriteReq_hits::total        1510342                       # number of WriteReq hits
system.cpu.dcache.WriteReq_misses::.cpu.data        17667                       # number of WriteReq misses
system.cpu.dcache.WriteReq_misses::total        17667                       # number of WriteReq misses
system.cpu.dcache.WriteReq_miss_latency::.cpu.data   1670954000                       # number of WriteReq miss cycles
system.cpu.dcache.WriteReq_miss_latency::total   1670954000                       # number of WriteReq miss cycles
system.cpu.dcache.WriteReq_accesses::.cpu.data      1528009                       # number of WriteReq accesses(hits+misses)
system.cpu.dcache.WriteReq_accesses::total      1528009                       # number of WriteReq accesses(hits+misses)
system.cpu.dcache.WriteReq_miss_rate::.cpu.data     0.011562                       # miss rate for WriteReq accesses
system.cpu.dcache.WriteReq_miss_rate::total     0.011562                       # miss rate for WriteReq accesses
system.cpu.dcache.WriteReq_avg_miss_latency::.cpu.data 94580.517349                       # average WriteReq miss latency
system.cpu.dcache.WriteReq_avg_miss_latency::total 94580.517349                       # average WriteReq miss latency
system.cpu.dcache.WriteReq_mshr_hits::.cpu.data         8039                       # number of WriteReq MSHR hits
system.cpu.dcache.WriteReq_mshr_hits::total         8039                       # number of WriteReq MSHR hits
system.cpu.dcache.WriteReq_mshr_misses::.cpu.data         9628                       # number of WriteReq MSHR misses
system.cpu.dcache.WriteReq_mshr_misses::total         9628                       # number of WriteReq MSHR misses
system.cpu.dcache.WriteReq_mshr_miss_latency::.cpu.data   1011463000                       # number of WriteReq MSHR miss cycles
system.cpu.dcache.WriteReq_mshr_miss_latency::total   1011463000                       # number of WriteReq MSHR miss cycles
system.cpu.dcache.WriteReq_mshr_miss_rate::.cpu.data     0.006301                       # mshr miss rate for WriteReq accesses
system.cpu.dcache.WriteReq_mshr_miss_rate::total     0.006301                       # mshr miss rate for WriteReq accesses
system.cpu.dcache.WriteReq_avg_mshr_miss_latency::.cpu.data 105054.320731                       # average WriteReq mshr miss latency
system.cpu.dcache.WriteReq_avg_mshr_miss_latency::total 105054.320731                       # average WriteReq mshr miss latency
system.cpu.dcache.SoftPFReq_hits::.cpu.data           43                       # number of SoftPFReq hits
system.cpu.dcache.SoftPFReq_hits::total            43                       # number of SoftPFReq hits
system.cpu.dcache.SoftPFReq_misses::.cpu.data           12                       # number of SoftPFReq misses
system.cpu.dcache.SoftPFReq_misses::total           12                       # number of SoftPFReq misses
system.cpu.dcache.SoftPFReq_accesses::.cpu.data           55                       # number of SoftPFReq accesses(hits+misses)
system.cpu.dcache.SoftPFReq_accesses::total           55                       # number of SoftPFReq accesses(hits+misses)
system.cpu.dcache.SoftPFReq_miss_rate::.cpu.data     0.218182                       # miss rate for SoftPFReq accesses
system.cpu.dcache.SoftPFReq_miss_rate::total     0.218182                       # miss rate for SoftPFReq accesses
system.cpu.dcache.SoftPFReq_mshr_misses::.cpu.data            8                       # number of SoftPFReq MSHR misses
system.cpu.dcache.SoftPFReq_mshr_misses::total            8                       # number of SoftPFReq MSHR misses
system.cpu.dcache.SoftPFReq_mshr_miss_latency::.cpu.data       926000                       # number of SoftPFReq MSHR miss cycles
system.cpu.dcache.SoftPFReq_mshr_miss_latency::total       926000                       # number of SoftPFReq MSHR miss cycles
system.cpu.dcache.SoftPFReq_mshr_miss_rate::.cpu.data     0.145455                       # mshr miss rate for SoftPFReq accesses
system.cpu.dcache.SoftPFReq_mshr_miss_rate::total     0.145455                       # mshr miss rate for SoftPFReq accesses
system.cpu.dcache.SoftPFReq_avg_mshr_miss_latency::.cpu.data       115750                       # average SoftPFReq mshr miss latency
system.cpu.dcache.SoftPFReq_avg_mshr_miss_latency::total       115750                       # average SoftPFReq mshr miss latency
system.cpu.dcache.LoadLockedReq_hits::.cpu.data        10858                       # number of LoadLockedReq hits
system.cpu.dcache.LoadLockedReq_hits::total        10858                       # number of LoadLockedReq hits
system.cpu.dcache.LoadLockedReq_accesses::.cpu.data        10858                       # number of LoadLockedReq accesses(hits+misses)
system.cpu.dcache.LoadLockedReq_accesses::total        10858                       # number of LoadLockedReq accesses(hits+misses)
system.cpu.dcache.StoreCondReq_hits::.cpu.data        10858                       # number of StoreCondReq hits
system.cpu.dcache.StoreCondReq_hits::total        10858                       # number of StoreCondReq hits
system.cpu.dcache.StoreCondReq_accesses::.cpu.data        10858                       # number of StoreCondReq accesses(hits+misses)
system.cpu.dcache.StoreCondReq_accesses::total        10858                       # number of StoreCondReq accesses(hits+misses)
system.cpu.dcache.tags.pwrStateResidencyTicks::UNDEFINED  14755773000                       # Cumulative time (in ticks) in various power states
system.cpu.dcache.tags.tagsinuse           253.839205                       # Cycle average of tags in use
system.cpu.dcache.tags.total_refs             3841538                       # Total number of references to valid blocks.
system.cpu.dcache.tags.sampled_refs             11083                       # Sample count of references to valid blocks.
system.cpu.dcache.tags.avg_refs            346.615357                       # Average number of references to valid blocks.
system.cpu.dcache.tags.warmup_cycle            255000                       # Cycle when the warmup percentage was hit.
system.cpu.dcache.tags.occ_blocks::.cpu.data   253.839205                       # Average occupied blocks per requestor
system.cpu.dcache.tags.occ_percent::.cpu.data     0.991559                       # Average percentage of cache occupancy
system.cpu.dcache.tags.occ_percent::total     0.991559                       # Average percentage of cache occupancy
system.cpu.dcache.tags.occ_task_id_blocks::1024          256                       # Occupied blocks per task id
system.cpu.dcache.tags.age_task_id_blocks_1024::0            6                       # Occupied blocks per task id
system.cpu.dcache.tags.age_task_id_blocks_1024::1           57                       # Occupied blocks per task id
system.cpu.dcache.tags.age_task_id_blocks_1024::2          170                       # Occupied blocks per task id
system.cpu.dcache.tags.age_task_id_blocks_1024::3            9                       # Occupied blocks per task id
system.cpu.dcache.tags.age_task_id_blocks_1024::4           14                       # Occupied blocks per task id
system.cpu.dcache.tags.occ_task_id_percent::1024            1                       # Percentage of cache occupancy per task id
system.cpu.dcache.tags.tag_accesses           7710935                       # Number of tag accesses
system.cpu.dcache.tags.data_accesses          7710935                       # Number of data accesses
system.cpu.itb.walker.pwrStateResidencyTicks::UNDEFINED  14755773000                       # Cumulative time (in ticks) in various power states
system.cpu.itb.stage2_mmu.stage2_tlb.walker.pwrStateResidencyTicks::UNDEFINED  14755773000                       # Cumulative time (in ticks) in various power states

---------- End Simulation Statistics   ----------
