
---------- Begin Simulation Statistics ----------
final_tick                               114805503000                       # Number of ticks from beginning of simulation (restored from checkpoints and never reset)
host_inst_rate                                 137667                       # Simulator instruction rate (inst/s)
host_mem_usage                                 718864                       # Number of bytes of host memory used
host_op_rate                                   195437                       # Simulator op (including micro ops) rate (op/s)
host_seconds                                    72.64                       # Real time elapsed on the host
host_tick_rate                             1580477038                       # Simulator tick rate (ticks/s)
sim_freq                                 1000000000000                       # Frequency of simulated ticks
sim_insts                                    10000001                       # Number of instructions simulated
sim_ops                                      14196460                       # Number of ops (including micro ops) simulated
sim_seconds                                  0.114806                       # Number of seconds simulated
sim_ticks                                114805503000                       # Number of ticks simulated
system.cpu.branchPred.BTBCorrect                    0                       # Number of correct BTB predictions (this stat may not work properly.
system.cpu.branchPred.BTBHitPct             99.621879                       # BTB Hit Percentage
system.cpu.branchPred.BTBHits                  561709                       # Number of BTB hits
system.cpu.branchPred.BTBLookups               563841                       # Number of BTB lookups
system.cpu.branchPred.RASInCorrect                  5                       # Number of incorrect RAS predictions.
system.cpu.branchPred.condIncorrect               927                       # Number of conditional branches incorrect
system.cpu.branchPred.condPredicted            560666                       # Number of conditional branches predicted
system.cpu.branchPred.indirectHits                 14                       # Number of indirect target hits.
system.cpu.branchPred.indirectLookups             108                       # Number of indirect predictor lookups.
system.cpu.branchPred.indirectMisses               94                       # Number of indirect misses.
system.cpu.branchPred.lookups                  567237                       # Number of BP lookups
system.cpu.branchPred.usedRAS                    2257                       # Number of times the RAS was used to get a target.
system.cpu.branchPredindirectMispredicted           50                       # Number of mispredicted indirect branches.
system.cpu.committedInsts                    10000001                       # Number of instructions committed
system.cpu.committedOps                      14196460                       # Number of ops (including micro ops) committed
system.cpu.cpi                              11.480549                       # CPI: cycles per instruction
system.cpu.discardedOps                          2626                       # Number of ops (including micro ops) which were discarded before commit
system.cpu.dtb.accesses                             0                       # DTB accesses
system.cpu.dtb.align_faults                         0                       # Number of TLB faults due to alignment restrictions
system.cpu.dtb.domain_faults                        0                       # Number of TLB faults due to domain restrictions
system.cpu.dtb.flush_entries                        0                       # Number of entries that have been flushed from TLB
system.cpu.dtb.flush_tlb                            0                       # Number of times complete TLB was flushed
system.cpu.dtb.flush_tlb_asid                       0                       # Number of times TLB was flushed by ASID
system.cpu.dtb.flush_tlb_mva                        0                       # Number of times TLB was flushed by MVA
system.cpu.dtb.flush_tlb_mva_asid                   0                       # Number of times TLB was flushed by MVA & ASID
system.cpu.dtb.hits                                 0                       # DTB hits
system.cpu.dtb.inst_accesses                        0                       # ITB inst accesses
system.cpu.dtb.inst_hits                            0                       # ITB inst hits
system.cpu.dtb.inst_misses                          0                       # ITB inst misses
system.cpu.dtb.misses                               0                       # DTB misses
system.cpu.dtb.perms_faults                         0                       # Number of TLB faults due to permissions restrictions
system.cpu.dtb.prefetch_faults                      0                       # Number of TLB faults due to prefetch
system.cpu.dtb.read_accesses                        0                       # DTB read accesses
system.cpu.dtb.read_hits                            0                       # DTB read hits
system.cpu.dtb.read_misses                          0                       # DTB read misses
system.cpu.dtb.stage2_mmu.stage2_tlb.accesses            0                       # DTB accesses
system.cpu.dtb.stage2_mmu.stage2_tlb.align_faults            0                       # Number of TLB faults due to alignment restrictions
system.cpu.dtb.stage2_mmu.stage2_tlb.domain_faults            0                       # Number of TLB faults due to domain restrictions
system.cpu.dtb.stage2_mmu.stage2_tlb.flush_entries            0                       # Number of entries that have been flushed from TLB
system.cpu.dtb.stage2_mmu.stage2_tlb.flush_tlb            0                       # Number of times complete TLB was flushed
system.cpu.dtb.stage2_mmu.stage2_tlb.flush_tlb_asid            0                       # Number of times TLB was flushed by ASID
system.cpu.dtb.stage2_mmu.stage2_tlb.flush_tlb_mva            0                       # Number of times TLB was flushed by MVA
system.cpu.dtb.stage2_mmu.stage2_tlb.flush_tlb_mva_asid            0                       # Number of times TLB was flushed by MVA & ASID
system.cpu.dtb.stage2_mmu.stage2_tlb.hits            0                       # DTB hits
system.cpu.dtb.stage2_mmu.stage2_tlb.inst_accesses            0                       # ITB inst accesses
system.cpu.dtb.stage2_mmu.stage2_tlb.inst_hits            0                       # ITB inst hits
system.cpu.dtb.stage2_mmu.stage2_tlb.inst_misses            0                       # ITB inst misses
system.cpu.dtb.stage2_mmu.stage2_tlb.misses            0                       # DTB misses
system.cpu.dtb.stage2_mmu.stage2_tlb.perms_faults            0                       # Number of TLB faults due to permissions restrictions
system.cpu.dtb.stage2_mmu.stage2_tlb.prefetch_faults            0                       # Number of TLB faults due to prefetch
system.cpu.dtb.stage2_mmu.stage2_tlb.read_accesses            0                       # DTB read accesses
system.cpu.dtb.stage2_mmu.stage2_tlb.read_hits            0                       # DTB read hits
system.cpu.dtb.stage2_mmu.stage2_tlb.read_misses            0                       # DTB read misses
system.cpu.dtb.stage2_mmu.stage2_tlb.walker.walkRequestOrigin_Requested::Data            0                       # Table walker requests started/completed, data/inst
system.cpu.dtb.stage2_mmu.stage2_tlb.walker.walkRequestOrigin_Requested::Inst            0                       # Table walker requests started/completed, data/inst
system.cpu.dtb.stage2_mmu.stage2_tlb.walker.walkRequestOrigin_Requested::total            0                       # Table walker requests started/completed, data/inst
system.cpu.dtb.stage2_mmu.stage2_tlb.walker.walkRequestOrigin_Completed::Data            0                       # Table walker requests started/completed, data/inst
system.cpu.dtb.stage2_mmu.stage2_tlb.walker.walkRequestOrigin_Completed::Inst            0                       # Table walker requests started/completed, data/inst
system.cpu.dtb.stage2_mmu.stage2_tlb.walker.walkRequestOrigin_Completed::total            0                       # Table walker requests started/completed, data/inst
system.cpu.dtb.stage2_mmu.stage2_tlb.walker.walkRequestOrigin::total            0                       # Table walker requests started/completed, data/inst
system.cpu.dtb.stage2_mmu.stage2_tlb.walker.walks            0                       # Table walker walks requested
system.cpu.dtb.stage2_mmu.stage2_tlb.write_accesses            0                       # DTB write accesses
system.cpu.dtb.stage2_mmu.stage2_tlb.write_hits            0                       # DTB write hits
system.cpu.dtb.stage2_mmu.stage2_tlb.write_misses            0                       # DTB write misses
system.cpu.dtb.walker.walkRequestOrigin_Requested::Data            0                       # Table walker requests started/completed, data/inst
system.cpu.dtb.walker.walkRequestOrigin_Requested::Inst            0                       # Table walker requests started/completed, data/inst
system.cpu.dtb.walker.walkRequestOrigin_Requested::total            0                       # Table walker requests started/completed, data/inst
system.cpu.dtb.walker.walkRequestOrigin_Completed::Data            0                       # Table walker requests started/completed, data/inst
system.cpu.dtb.walker.walkRequestOrigin_Completed::Inst            0                       # Table walker requests started/completed, data/inst
system.cpu.dtb.walker.walkRequestOrigin_Completed::total            0                       # Table walker requests started/completed, data/inst
system.cpu.dtb.walker.walkRequestOrigin::total            0                       # Table walker requests started/completed, data/inst
system.cpu.dtb.walker.walks                         0                       # Table walker walks requested
system.cpu.dtb.write_accesses                       0                       # DTB write accesses
system.cpu.dtb.write_hits                           0                       # DTB write hits
system.cpu.dtb.write_misses                         0                       # DTB write misses
system.cpu.fetch2.amo_instructions                  0                       # Number of memory atomic instructions successfully decoded
system.cpu.fetch2.fp_instructions                   0                       # Number of floating point instructions successfully decoded
system.cpu.fetch2.int_instructions            4889113                       # Number of integer instructions successfully decoded
system.cpu.fetch2.load_instructions           2074914                       # Number of memory load instructions successfully decoded
system.cpu.fetch2.store_instructions           166420                       # Number of memory store instructions successfully decoded
system.cpu.fetch2.vec_instructions                  0                       # Number of SIMD instructions successfully decoded
system.cpu.idleCycles                        95158728                       # Total number of cycles that the object has spent stopped
system.cpu.ipc                               0.087104                       # IPC: instructions per cycle
system.cpu.itb.accesses                             0                       # DTB accesses
system.cpu.itb.align_faults                         0                       # Number of TLB faults due to alignment restrictions
system.cpu.itb.domain_faults                        0                       # Number of TLB faults due to domain restrictions
system.cpu.itb.flush_entries                        0                       # Number of entries that have been flushed from TLB
system.cpu.itb.flush_tlb                            0                       # Number of times complete TLB was flushed
system.cpu.itb.flush_tlb_asid                       0                       # Number of times TLB was flushed by ASID
system.cpu.itb.flush_tlb_mva                        0                       # Number of times TLB was flushed by MVA
system.cpu.itb.flush_tlb_mva_asid                   0                       # Number of times TLB was flushed by MVA & ASID
system.cpu.itb.hits                                 0                       # DTB hits
system.cpu.itb.inst_accesses                        0                       # ITB inst accesses
system.cpu.itb.inst_hits                            0                       # ITB inst hits
system.cpu.itb.inst_misses                          0                       # ITB inst misses
system.cpu.itb.misses                               0                       # DTB misses
system.cpu.itb.perms_faults                         0                       # Number of TLB faults due to permissions restrictions
system.cpu.itb.prefetch_faults                      0                       # Number of TLB faults due to prefetch
system.cpu.itb.read_accesses                        0                       # DTB read accesses
system.cpu.itb.read_hits                            0                       # DTB read hits
system.cpu.itb.read_misses                          0                       # DTB read misses
system.cpu.itb.stage2_mmu.stage2_tlb.accesses            0                       # DTB accesses
system.cpu.itb.stage2_mmu.stage2_tlb.align_faults            0                       # Number of TLB faults due to alignment restrictions
system.cpu.itb.stage2_mmu.stage2_tlb.domain_faults            0                       # Number of TLB faults due to domain restrictions
system.cpu.itb.stage2_mmu.stage2_tlb.flush_entries            0                       # Number of entries that have been flushed from TLB
system.cpu.itb.stage2_mmu.stage2_tlb.flush_tlb            0                       # Number of times complete TLB was flushed
system.cpu.itb.stage2_mmu.stage2_tlb.flush_tlb_asid            0                       # Number of times TLB was flushed by ASID
system.cpu.itb.stage2_mmu.stage2_tlb.flush_tlb_mva            0                       # Number of times TLB was flushed by MVA
system.cpu.itb.stage2_mmu.stage2_tlb.flush_tlb_mva_asid            0                       # Number of times TLB was flushed by MVA & ASID
system.cpu.itb.stage2_mmu.stage2_tlb.hits            0                       # DTB hits
system.cpu.itb.stage2_mmu.stage2_tlb.inst_accesses            0                       # ITB inst accesses
system.cpu.itb.stage2_mmu.stage2_tlb.inst_hits            0                       # ITB inst hits
system.cpu.itb.stage2_mmu.stage2_tlb.inst_misses            0                       # ITB inst misses
system.cpu.itb.stage2_mmu.stage2_tlb.misses            0                       # DTB misses
system.cpu.itb.stage2_mmu.stage2_tlb.perms_faults            0                       # Number of TLB faults due to permissions restrictions
system.cpu.itb.stage2_mmu.stage2_tlb.prefetch_faults            0                       # Number of TLB faults due to prefetch
system.cpu.itb.stage2_mmu.stage2_tlb.read_accesses            0                       # DTB read accesses
system.cpu.itb.stage2_mmu.stage2_tlb.read_hits            0                       # DTB read hits
system.cpu.itb.stage2_mmu.stage2_tlb.read_misses            0                       # DTB read misses
system.cpu.itb.stage2_mmu.stage2_tlb.walker.walkRequestOrigin_Requested::Data            0                       # Table walker requests started/completed, data/inst
system.cpu.itb.stage2_mmu.stage2_tlb.walker.walkRequestOrigin_Requested::Inst            0                       # Table walker requests started/completed, data/inst
system.cpu.itb.stage2_mmu.stage2_tlb.walker.walkRequestOrigin_Requested::total            0                       # Table walker requests started/completed, data/inst
system.cpu.itb.stage2_mmu.stage2_tlb.walker.walkRequestOrigin_Completed::Data            0                       # Table walker requests started/completed, data/inst
system.cpu.itb.stage2_mmu.stage2_tlb.walker.walkRequestOrigin_Completed::Inst            0                       # Table walker requests started/completed, data/inst
system.cpu.itb.stage2_mmu.stage2_tlb.walker.walkRequestOrigin_Completed::total            0                       # Table walker requests started/completed, data/inst
system.cpu.itb.stage2_mmu.stage2_tlb.walker.walkRequestOrigin::total            0                       # Table walker requests started/completed, data/inst
system.cpu.itb.stage2_mmu.stage2_tlb.walker.walks            0                       # Table walker walks requested
system.cpu.itb.stage2_mmu.stage2_tlb.write_accesses            0                       # DTB write accesses
system.cpu.itb.stage2_mmu.stage2_tlb.write_hits            0                       # DTB write hits
system.cpu.itb.stage2_mmu.stage2_tlb.write_misses            0                       # DTB write misses
system.cpu.itb.walker.walkRequestOrigin_Requested::Data            0                       # Table walker requests started/completed, data/inst
system.cpu.itb.walker.walkRequestOrigin_Requested::Inst            0                       # Table walker requests started/completed, data/inst
system.cpu.itb.walker.walkRequestOrigin_Requested::total            0                       # Table walker requests started/completed, data/inst
system.cpu.itb.walker.walkRequestOrigin_Completed::Data            0                       # Table walker requests started/completed, data/inst
system.cpu.itb.walker.walkRequestOrigin_Completed::Inst            0                       # Table walker requests started/completed, data/inst
system.cpu.itb.walker.walkRequestOrigin_Completed::total            0                       # Table walker requests started/completed, data/inst
system.cpu.itb.walker.walkRequestOrigin::total            0                       # Table walker requests started/completed, data/inst
system.cpu.itb.walker.walks                         0                       # Table walker walks requested
system.cpu.itb.write_accesses                       0                       # DTB write accesses
system.cpu.itb.write_hits                           0                       # DTB write hits
system.cpu.itb.write_misses                         0                       # DTB write misses
system.cpu.numCycles                        114805503                       # number of cpu cycles simulated
system.cpu.numFetchSuspends                         0                       # Number of times Execute suspended instruction fetching
system.cpu.numWorkItemsCompleted                    0                       # number of work items this cpu completed
system.cpu.numWorkItemsStarted                      0                       # number of work items this cpu started
system.cpu.op_class_0::No_OpClass                   0      0.00%      0.00% # Class of committed instruction
system.cpu.op_class_0::IntAlu                 7650230     53.89%     53.89% # Class of committed instruction
system.cpu.op_class_0::IntMult                 114597      0.81%     54.70% # Class of committed instruction
system.cpu.op_class_0::IntDiv                       0      0.00%     54.70% # Class of committed instruction
system.cpu.op_class_0::FloatAdd                     0      0.00%     54.70% # Class of committed instruction
system.cpu.op_class_0::FloatCmp                     0      0.00%     54.70% # Class of committed instruction
system.cpu.op_class_0::FloatCvt                     0      0.00%     54.70% # Class of committed instruction
system.cpu.op_class_0::FloatMult                    0      0.00%     54.70% # Class of committed instruction
system.cpu.op_class_0::FloatMultAcc                 0      0.00%     54.70% # Class of committed instruction
system.cpu.op_class_0::FloatDiv                     0      0.00%     54.70% # Class of committed instruction
system.cpu.op_class_0::FloatMisc                    0      0.00%     54.70% # Class of committed instruction
system.cpu.op_class_0::FloatSqrt                    0      0.00%     54.70% # Class of committed instruction
system.cpu.op_class_0::SimdAdd                      0      0.00%     54.70% # Class of committed instruction
system.cpu.op_class_0::SimdAddAcc                   0      0.00%     54.70% # Class of committed instruction
system.cpu.op_class_0::SimdAlu                      0      0.00%     54.70% # Class of committed instruction
system.cpu.op_class_0::SimdCmp                      0      0.00%     54.70% # Class of committed instruction
system.cpu.op_class_0::SimdCvt                      0      0.00%     54.70% # Class of committed instruction
system.cpu.op_class_0::SimdMisc                     0      0.00%     54.70% # Class of committed instruction
system.cpu.op_class_0::SimdMult                     0      0.00%     54.70% # Class of committed instruction
system.cpu.op_class_0::SimdMultAcc                  0      0.00%     54.70% # Class of committed instruction
system.cpu.op_class_0::SimdShift                    0      0.00%     54.70% # Class of committed instruction
system.cpu.op_class_0::SimdShiftAcc                 0      0.00%     54.70% # Class of committed instruction
system.cpu.op_class_0::SimdDiv                      0      0.00%     54.70% # Class of committed instruction
system.cpu.op_class_0::SimdSqrt                     0      0.00%     54.70% # Class of committed instruction
system.cpu.op_class_0::SimdFloatAdd                 0      0.00%     54.70% # Class of committed instruction
system.cpu.op_class_0::SimdFloatAlu                 0      0.00%     54.70% # Class of committed instruction
system.cpu.op_class_0::SimdFloatCmp                 0      0.00%     54.70% # Class of committed instruction
system.cpu.op_class_0::SimdFloatCvt                 0      0.00%     54.70% # Class of committed instruction
system.cpu.op_class_0::SimdFloatDiv                 0      0.00%     54.70% # Class of committed instruction
system.cpu.op_class_0::SimdFloatMisc               17      0.00%     54.70% # Class of committed instruction
system.cpu.op_class_0::SimdFloatMult                0      0.00%     54.70% # Class of committed instruction
system.cpu.op_class_0::SimdFloatMultAcc             0      0.00%     54.70% # Class of committed instruction
system.cpu.op_class_0::SimdFloatSqrt                0      0.00%     54.70% # Class of committed instruction
system.cpu.op_class_0::SimdReduceAdd                0      0.00%     54.70% # Class of committed instruction
system.cpu.op_class_0::SimdReduceAlu                0      0.00%     54.70% # Class of committed instruction
system.cpu.op_class_0::SimdReduceCmp                0      0.00%     54.70% # Class of committed instruction
system.cpu.op_class_0::SimdFloatReduceAdd            0      0.00%     54.70% # Class of committed instruction
system.cpu.op_class_0::SimdFloatReduceCmp            0      0.00%     54.70% # Class of committed instruction
system.cpu.op_class_0::SimdAes                      0      0.00%     54.70% # Class of committed instruction
system.cpu.op_class_0::SimdAesMix                   0      0.00%     54.70% # Class of committed instruction
system.cpu.op_class_0::SimdSha1Hash                 0      0.00%     54.70% # Class of committed instruction
system.cpu.op_class_0::SimdSha1Hash2                0      0.00%     54.70% # Class of committed instruction
system.cpu.op_class_0::SimdSha256Hash               0      0.00%     54.70% # Class of committed instruction
system.cpu.op_class_0::SimdSha256Hash2              0      0.00%     54.70% # Class of committed instruction
system.cpu.op_class_0::SimdShaSigma2                0      0.00%     54.70% # Class of committed instruction
system.cpu.op_class_0::SimdShaSigma3                0      0.00%     54.70% # Class of committed instruction
system.cpu.op_class_0::SimdPredAlu                  0      0.00%     54.70% # Class of committed instruction
system.cpu.op_class_0::MemRead                2073895     14.61%     69.30% # Class of committed instruction
system.cpu.op_class_0::MemWrite               4357721     30.70%    100.00% # Class of committed instruction
system.cpu.op_class_0::FloatMemRead                 0      0.00%    100.00% # Class of committed instruction
system.cpu.op_class_0::FloatMemWrite                0      0.00%    100.00% # Class of committed instruction
system.cpu.op_class_0::IprAccess                    0      0.00%    100.00% # Class of committed instruction
system.cpu.op_class_0::InstPrefetch                 0      0.00%    100.00% # Class of committed instruction
system.cpu.op_class_0::total                 14196460                       # Class of committed instruction
system.cpu.tickCycles                        19646775                       # Number of cycles that the object actually ticked
system.cpu.workload.numSyscalls                    11                       # Number of system calls
system.membus.snoop_filter.hit_multi_requests            0                       # Number of requests hitting in the snoop filter with multiple (>1) holders of the requested data.
system.membus.snoop_filter.hit_multi_snoops            0                       # Number of snoops hitting in the snoop filter with multiple (>1) holders of the requested data.
system.membus.snoop_filter.hit_single_requests       926622                       # Number of requests hitting in the snoop filter with a single holder of the requested data.
system.membus.snoop_filter.hit_single_snoops            0                       # Number of snoops hitting in the snoop filter with a single holder of the requested data.
system.membus.snoop_filter.tot_requests       1985241                       # Total number of requests made to the snoop filter.
system.membus.snoop_filter.tot_snoops               0                       # Total number of snoops made to the snoop filter.
system.tol2bus.snoop_filter.hit_multi_requests           39                       # Number of requests hitting in the snoop filter with multiple (>1) holders of the requested data.
system.tol2bus.snoop_filter.hit_multi_snoops            0                       # Number of snoops hitting in the snoop filter with multiple (>1) holders of the requested data.
system.tol2bus.snoop_filter.hit_single_requests      1053706                       # Number of requests hitting in the snoop filter with a single holder of the requested data.
system.tol2bus.snoop_filter.hit_single_snoops          925                       # Number of snoops hitting in the snoop filter with a single holder of the requested data.
system.tol2bus.snoop_filter.tot_requests      2112433                       # Total number of requests made to the snoop filter.
system.tol2bus.snoop_filter.tot_snoops            925                       # Total number of snoops made to the snoop filter.
system.membus.pwrStateResidencyTicks::UNDEFINED 114805503000                       # Cumulative time (in ticks) in various power states
system.membus.trans_dist::ReadResp               1376                       # Transaction distribution
system.membus.trans_dist::WritebackDirty       926196                       # Transaction distribution
system.membus.trans_dist::CleanEvict              426                       # Transaction distribution
system.membus.trans_dist::ReadExReq           1057226                       # Transaction distribution
system.membus.trans_dist::ReadExResp          1057226                       # Transaction distribution
system.membus.trans_dist::ReadSharedReq          1376                       # Transaction distribution
system.membus.trans_dist::InvalidateReq            17                       # Transaction distribution
system.membus.pkt_count_system.l2.mem_side::system.mem_ctrls.port      3043843                       # Packet count per connected master and slave (bytes)
system.membus.pkt_count::total                3043843                       # Packet count per connected master and slave (bytes)
system.membus.pkt_size_system.l2.mem_side::system.mem_ctrls.port     31756768                       # Cumulative packet size per connected master and slave (bytes)
system.membus.pkt_size::total                31756768                       # Cumulative packet size per connected master and slave (bytes)
system.membus.snoops                                0                       # Total snoops (count)
system.membus.snoopTraffic                          0                       # Total snoop traffic (bytes)
system.membus.snoop_fanout::samples           1058619                       # Request fanout histogram
system.membus.snoop_fanout::mean                    0                       # Request fanout histogram
system.membus.snoop_fanout::stdev                   0                       # Request fanout histogram
system.membus.snoop_fanout::underflows              0      0.00%      0.00% # Request fanout histogram
system.membus.snoop_fanout::0                 1058619    100.00%    100.00% # Request fanout histogram
system.membus.snoop_fanout::1                       0      0.00%    100.00% # Request fanout histogram
system.membus.snoop_fanout::overflows               0      0.00%    100.00% # Request fanout histogram
system.membus.snoop_fanout::min_value               0                       # Request fanout histogram
system.membus.snoop_fanout::max_value               0                       # Request fanout histogram
system.membus.snoop_fanout::total             1058619                       # Request fanout histogram
system.membus.respLayer1.occupancy         2400126500                       # Layer occupancy (ticks)
system.membus.respLayer1.utilization              2.1                       # Layer utilization (%)
system.membus.reqLayer0.occupancy          2911437000                       # Layer occupancy (ticks)
system.membus.reqLayer0.utilization               2.5                       # Layer utilization (%)
system.tol2bus.pwrStateResidencyTicks::UNDEFINED 114805503000                       # Cumulative time (in ticks) in various power states
system.tol2bus.trans_dist::ReadResp              1463                       # Transaction distribution
system.tol2bus.trans_dist::WritebackDirty      1979407                       # Transaction distribution
system.tol2bus.trans_dist::WritebackClean          102                       # Transaction distribution
system.tol2bus.trans_dist::CleanEvict            1744                       # Transaction distribution
system.tol2bus.trans_dist::ReadExReq          1057245                       # Transaction distribution
system.tol2bus.trans_dist::ReadExResp         1057245                       # Transaction distribution
system.tol2bus.trans_dist::ReadCleanReq          1027                       # Transaction distribution
system.tol2bus.trans_dist::ReadSharedReq          436                       # Transaction distribution
system.tol2bus.trans_dist::InvalidateReq           19                       # Transaction distribution
system.tol2bus.trans_dist::InvalidateResp           19                       # Transaction distribution
system.tol2bus.pkt_count_system.cpu.icache.mem_side::system.l2.cpu_side         2156                       # Packet count per connected master and slave (bytes)
system.tol2bus.pkt_count_system.cpu.dcache.mem_side::system.l2.cpu_side      3169004                       # Packet count per connected master and slave (bytes)
system.tol2bus.pkt_count::total               3171160                       # Packet count per connected master and slave (bytes)
system.tol2bus.pkt_size_system.cpu.icache.mem_side::system.l2.cpu_side        18064                       # Cumulative packet size per connected master and slave (bytes)
system.tol2bus.pkt_size_system.cpu.dcache.mem_side::system.l2.cpu_side     33774272                       # Cumulative packet size per connected master and slave (bytes)
system.tol2bus.pkt_size::total               33792336                       # Cumulative packet size per connected master and slave (bytes)
system.tol2bus.snoops                          927547                       # Total snoops (count)
system.tol2bus.snoopTraffic                  14819136                       # Total snoop traffic (bytes)
system.tol2bus.snoop_fanout::samples          1986274                       # Request fanout histogram
system.tol2bus.snoop_fanout::mean            0.000485                       # Request fanout histogram
system.tol2bus.snoop_fanout::stdev           0.022025                       # Request fanout histogram
system.tol2bus.snoop_fanout::underflows             0      0.00%      0.00% # Request fanout histogram
system.tol2bus.snoop_fanout::0                1985310     99.95%     99.95% # Request fanout histogram
system.tol2bus.snoop_fanout::1                    964      0.05%    100.00% # Request fanout histogram
system.tol2bus.snoop_fanout::2                      0      0.00%    100.00% # Request fanout histogram
system.tol2bus.snoop_fanout::overflows              0      0.00%    100.00% # Request fanout histogram
system.tol2bus.snoop_fanout::min_value              0                       # Request fanout histogram
system.tol2bus.snoop_fanout::max_value              1                       # Request fanout histogram
system.tol2bus.snoop_fanout::total            1986274                       # Request fanout histogram
system.tol2bus.reqLayer0.occupancy         3165746000                       # Layer occupancy (ticks)
system.tol2bus.reqLayer0.utilization              2.8                       # Layer utilization (%)
system.tol2bus.respLayer1.occupancy        2115383997                       # Layer occupancy (ticks)
system.tol2bus.respLayer1.utilization             1.8                       # Layer utilization (%)
system.tol2bus.respLayer0.occupancy           2054999                       # Layer occupancy (ticks)
system.tol2bus.respLayer0.utilization             0.0                       # Layer utilization (%)
system.voltage_domain.voltage                       1                       # Voltage in Volts
system.clk_domain.clock                          1000                       # Clock period in ticks
system.l2.pwrStateResidencyTicks::UNDEFINED 114805503000                       # Cumulative time (in ticks) in various power states
system.l2.demand_hits::.cpu.inst                   36                       # number of demand (read+write) hits
system.l2.demand_hits::.cpu.data                   66                       # number of demand (read+write) hits
system.l2.demand_hits::total                      102                       # number of demand (read+write) hits
system.l2.overall_hits::.cpu.inst                  36                       # number of overall hits
system.l2.overall_hits::.cpu.data                  66                       # number of overall hits
system.l2.overall_hits::total                     102                       # number of overall hits
system.l2.demand_misses::.cpu.inst                991                       # number of demand (read+write) misses
system.l2.demand_misses::.cpu.data            1057615                       # number of demand (read+write) misses
system.l2.demand_misses::total                1058606                       # number of demand (read+write) misses
system.l2.overall_misses::.cpu.inst               991                       # number of overall misses
system.l2.overall_misses::.cpu.data           1057615                       # number of overall misses
system.l2.overall_misses::total               1058606                       # number of overall misses
system.l2.demand_miss_latency::.cpu.inst     95310000                       # number of demand (read+write) miss cycles
system.l2.demand_miss_latency::.cpu.data 101309607000                       # number of demand (read+write) miss cycles
system.l2.demand_miss_latency::total     101404917000                       # number of demand (read+write) miss cycles
system.l2.overall_miss_latency::.cpu.inst     95310000                       # number of overall miss cycles
system.l2.overall_miss_latency::.cpu.data 101309607000                       # number of overall miss cycles
system.l2.overall_miss_latency::total    101404917000                       # number of overall miss cycles
system.l2.demand_accesses::.cpu.inst             1027                       # number of demand (read+write) accesses
system.l2.demand_accesses::.cpu.data          1057681                       # number of demand (read+write) accesses
system.l2.demand_accesses::total              1058708                       # number of demand (read+write) accesses
system.l2.overall_accesses::.cpu.inst            1027                       # number of overall (read+write) accesses
system.l2.overall_accesses::.cpu.data         1057681                       # number of overall (read+write) accesses
system.l2.overall_accesses::total             1058708                       # number of overall (read+write) accesses
system.l2.demand_miss_rate::.cpu.inst        0.964946                       # miss rate for demand accesses
system.l2.demand_miss_rate::.cpu.data        0.999938                       # miss rate for demand accesses
system.l2.demand_miss_rate::total            0.999904                       # miss rate for demand accesses
system.l2.overall_miss_rate::.cpu.inst       0.964946                       # miss rate for overall accesses
system.l2.overall_miss_rate::.cpu.data       0.999938                       # miss rate for overall accesses
system.l2.overall_miss_rate::total           0.999904                       # miss rate for overall accesses
system.l2.demand_avg_miss_latency::.cpu.inst 96175.580222                       # average overall miss latency
system.l2.demand_avg_miss_latency::.cpu.data 95790.629861                       # average overall miss latency
system.l2.demand_avg_miss_latency::total 95790.990227                       # average overall miss latency
system.l2.overall_avg_miss_latency::.cpu.inst 96175.580222                       # average overall miss latency
system.l2.overall_avg_miss_latency::.cpu.data 95790.629861                       # average overall miss latency
system.l2.overall_avg_miss_latency::total 95790.990227                       # average overall miss latency
system.l2.blocked_cycles::no_mshrs                  0                       # number of cycles access was blocked
system.l2.blocked_cycles::no_targets                0                       # number of cycles access was blocked
system.l2.blocked::no_mshrs                         0                       # number of cycles access was blocked
system.l2.blocked::no_targets                       0                       # number of cycles access was blocked
system.l2.avg_blocked_cycles::no_mshrs            nan                       # average number of cycles each access was blocked
system.l2.avg_blocked_cycles::no_targets          nan                       # average number of cycles each access was blocked
system.l2.writebacks::.writebacks              926196                       # number of writebacks
system.l2.writebacks::total                    926196                       # number of writebacks
system.l2.demand_mshr_hits::.cpu.inst               1                       # number of demand (read+write) MSHR hits
system.l2.demand_mshr_hits::.cpu.data               3                       # number of demand (read+write) MSHR hits
system.l2.demand_mshr_hits::total                   4                       # number of demand (read+write) MSHR hits
system.l2.overall_mshr_hits::.cpu.inst              1                       # number of overall MSHR hits
system.l2.overall_mshr_hits::.cpu.data              3                       # number of overall MSHR hits
system.l2.overall_mshr_hits::total                  4                       # number of overall MSHR hits
system.l2.demand_mshr_misses::.cpu.inst           990                       # number of demand (read+write) MSHR misses
system.l2.demand_mshr_misses::.cpu.data       1057612                       # number of demand (read+write) MSHR misses
system.l2.demand_mshr_misses::total           1058602                       # number of demand (read+write) MSHR misses
system.l2.overall_mshr_misses::.cpu.inst          990                       # number of overall MSHR misses
system.l2.overall_mshr_misses::.cpu.data      1057612                       # number of overall MSHR misses
system.l2.overall_mshr_misses::total          1058602                       # number of overall MSHR misses
system.l2.demand_mshr_miss_latency::.cpu.inst     75428000                       # number of demand (read+write) MSHR miss cycles
system.l2.demand_mshr_miss_latency::.cpu.data  80157097000                       # number of demand (read+write) MSHR miss cycles
system.l2.demand_mshr_miss_latency::total  80232525000                       # number of demand (read+write) MSHR miss cycles
system.l2.overall_mshr_miss_latency::.cpu.inst     75428000                       # number of overall MSHR miss cycles
system.l2.overall_mshr_miss_latency::.cpu.data  80157097000                       # number of overall MSHR miss cycles
system.l2.overall_mshr_miss_latency::total  80232525000                       # number of overall MSHR miss cycles
system.l2.demand_mshr_miss_rate::.cpu.inst     0.963973                       # mshr miss rate for demand accesses
system.l2.demand_mshr_miss_rate::.cpu.data     0.999935                       # mshr miss rate for demand accesses
system.l2.demand_mshr_miss_rate::total       0.999900                       # mshr miss rate for demand accesses
system.l2.overall_mshr_miss_rate::.cpu.inst     0.963973                       # mshr miss rate for overall accesses
system.l2.overall_mshr_miss_rate::.cpu.data     0.999935                       # mshr miss rate for overall accesses
system.l2.overall_mshr_miss_rate::total      0.999900                       # mshr miss rate for overall accesses
system.l2.demand_avg_mshr_miss_latency::.cpu.inst 76189.898990                       # average overall mshr miss latency
system.l2.demand_avg_mshr_miss_latency::.cpu.data 75790.646286                       # average overall mshr miss latency
system.l2.demand_avg_mshr_miss_latency::total 75791.019666                       # average overall mshr miss latency
system.l2.overall_avg_mshr_miss_latency::.cpu.inst 76189.898990                       # average overall mshr miss latency
system.l2.overall_avg_mshr_miss_latency::.cpu.data 75790.646286                       # average overall mshr miss latency
system.l2.overall_avg_mshr_miss_latency::total 75791.019666                       # average overall mshr miss latency
system.l2.replacements                         927547                       # number of replacements
system.l2.WritebackDirty_hits::.writebacks      1053211                       # number of WritebackDirty hits
system.l2.WritebackDirty_hits::total          1053211                       # number of WritebackDirty hits
system.l2.WritebackDirty_accesses::.writebacks      1053211                       # number of WritebackDirty accesses(hits+misses)
system.l2.WritebackDirty_accesses::total      1053211                       # number of WritebackDirty accesses(hits+misses)
system.l2.WritebackClean_hits::.writebacks           97                       # number of WritebackClean hits
system.l2.WritebackClean_hits::total               97                       # number of WritebackClean hits
system.l2.WritebackClean_accesses::.writebacks           97                       # number of WritebackClean accesses(hits+misses)
system.l2.WritebackClean_accesses::total           97                       # number of WritebackClean accesses(hits+misses)
system.l2.ReadExReq_hits::.cpu.data                19                       # number of ReadExReq hits
system.l2.ReadExReq_hits::total                    19                       # number of ReadExReq hits
system.l2.ReadExReq_misses::.cpu.data         1057226                       # number of ReadExReq misses
system.l2.ReadExReq_misses::total             1057226                       # number of ReadExReq misses
system.l2.ReadExReq_miss_latency::.cpu.data 101270571000                       # number of ReadExReq miss cycles
system.l2.ReadExReq_miss_latency::total  101270571000                       # number of ReadExReq miss cycles
system.l2.ReadExReq_accesses::.cpu.data       1057245                       # number of ReadExReq accesses(hits+misses)
system.l2.ReadExReq_accesses::total           1057245                       # number of ReadExReq accesses(hits+misses)
system.l2.ReadExReq_miss_rate::.cpu.data     0.999982                       # miss rate for ReadExReq accesses
system.l2.ReadExReq_miss_rate::total         0.999982                       # miss rate for ReadExReq accesses
system.l2.ReadExReq_avg_miss_latency::.cpu.data 95788.952409                       # average ReadExReq miss latency
system.l2.ReadExReq_avg_miss_latency::total 95788.952409                       # average ReadExReq miss latency
system.l2.ReadExReq_mshr_misses::.cpu.data      1057226                       # number of ReadExReq MSHR misses
system.l2.ReadExReq_mshr_misses::total        1057226                       # number of ReadExReq MSHR misses
system.l2.ReadExReq_mshr_miss_latency::.cpu.data  80126051000                       # number of ReadExReq MSHR miss cycles
system.l2.ReadExReq_mshr_miss_latency::total  80126051000                       # number of ReadExReq MSHR miss cycles
system.l2.ReadExReq_mshr_miss_rate::.cpu.data     0.999982                       # mshr miss rate for ReadExReq accesses
system.l2.ReadExReq_mshr_miss_rate::total     0.999982                       # mshr miss rate for ReadExReq accesses
system.l2.ReadExReq_avg_mshr_miss_latency::.cpu.data 75788.952409                       # average ReadExReq mshr miss latency
system.l2.ReadExReq_avg_mshr_miss_latency::total 75788.952409                       # average ReadExReq mshr miss latency
system.l2.ReadCleanReq_hits::.cpu.inst             36                       # number of ReadCleanReq hits
system.l2.ReadCleanReq_hits::total                 36                       # number of ReadCleanReq hits
system.l2.ReadCleanReq_misses::.cpu.inst          991                       # number of ReadCleanReq misses
system.l2.ReadCleanReq_misses::total              991                       # number of ReadCleanReq misses
system.l2.ReadCleanReq_miss_latency::.cpu.inst     95310000                       # number of ReadCleanReq miss cycles
system.l2.ReadCleanReq_miss_latency::total     95310000                       # number of ReadCleanReq miss cycles
system.l2.ReadCleanReq_accesses::.cpu.inst         1027                       # number of ReadCleanReq accesses(hits+misses)
system.l2.ReadCleanReq_accesses::total           1027                       # number of ReadCleanReq accesses(hits+misses)
system.l2.ReadCleanReq_miss_rate::.cpu.inst     0.964946                       # miss rate for ReadCleanReq accesses
system.l2.ReadCleanReq_miss_rate::total      0.964946                       # miss rate for ReadCleanReq accesses
system.l2.ReadCleanReq_avg_miss_latency::.cpu.inst 96175.580222                       # average ReadCleanReq miss latency
system.l2.ReadCleanReq_avg_miss_latency::total 96175.580222                       # average ReadCleanReq miss latency
system.l2.ReadCleanReq_mshr_hits::.cpu.inst            1                       # number of ReadCleanReq MSHR hits
system.l2.ReadCleanReq_mshr_hits::total             1                       # number of ReadCleanReq MSHR hits
system.l2.ReadCleanReq_mshr_misses::.cpu.inst          990                       # number of ReadCleanReq MSHR misses
system.l2.ReadCleanReq_mshr_misses::total          990                       # number of ReadCleanReq MSHR misses
system.l2.ReadCleanReq_mshr_miss_latency::.cpu.inst     75428000                       # number of ReadCleanReq MSHR miss cycles
system.l2.ReadCleanReq_mshr_miss_latency::total     75428000                       # number of ReadCleanReq MSHR miss cycles
system.l2.ReadCleanReq_mshr_miss_rate::.cpu.inst     0.963973                       # mshr miss rate for ReadCleanReq accesses
system.l2.ReadCleanReq_mshr_miss_rate::total     0.963973                       # mshr miss rate for ReadCleanReq accesses
system.l2.ReadCleanReq_avg_mshr_miss_latency::.cpu.inst 76189.898990                       # average ReadCleanReq mshr miss latency
system.l2.ReadCleanReq_avg_mshr_miss_latency::total 76189.898990                       # average ReadCleanReq mshr miss latency
system.l2.ReadSharedReq_hits::.cpu.data            47                       # number of ReadSharedReq hits
system.l2.ReadSharedReq_hits::total                47                       # number of ReadSharedReq hits
system.l2.ReadSharedReq_misses::.cpu.data          389                       # number of ReadSharedReq misses
system.l2.ReadSharedReq_misses::total             389                       # number of ReadSharedReq misses
system.l2.ReadSharedReq_miss_latency::.cpu.data     39036000                       # number of ReadSharedReq miss cycles
system.l2.ReadSharedReq_miss_latency::total     39036000                       # number of ReadSharedReq miss cycles
system.l2.ReadSharedReq_accesses::.cpu.data          436                       # number of ReadSharedReq accesses(hits+misses)
system.l2.ReadSharedReq_accesses::total           436                       # number of ReadSharedReq accesses(hits+misses)
system.l2.ReadSharedReq_miss_rate::.cpu.data     0.892202                       # miss rate for ReadSharedReq accesses
system.l2.ReadSharedReq_miss_rate::total     0.892202                       # miss rate for ReadSharedReq accesses
system.l2.ReadSharedReq_avg_miss_latency::.cpu.data 100349.614396                       # average ReadSharedReq miss latency
system.l2.ReadSharedReq_avg_miss_latency::total 100349.614396                       # average ReadSharedReq miss latency
system.l2.ReadSharedReq_mshr_hits::.cpu.data            3                       # number of ReadSharedReq MSHR hits
system.l2.ReadSharedReq_mshr_hits::total            3                       # number of ReadSharedReq MSHR hits
system.l2.ReadSharedReq_mshr_misses::.cpu.data          386                       # number of ReadSharedReq MSHR misses
system.l2.ReadSharedReq_mshr_misses::total          386                       # number of ReadSharedReq MSHR misses
system.l2.ReadSharedReq_mshr_miss_latency::.cpu.data     31046000                       # number of ReadSharedReq MSHR miss cycles
system.l2.ReadSharedReq_mshr_miss_latency::total     31046000                       # number of ReadSharedReq MSHR miss cycles
system.l2.ReadSharedReq_mshr_miss_rate::.cpu.data     0.885321                       # mshr miss rate for ReadSharedReq accesses
system.l2.ReadSharedReq_mshr_miss_rate::total     0.885321                       # mshr miss rate for ReadSharedReq accesses
system.l2.ReadSharedReq_avg_mshr_miss_latency::.cpu.data 80430.051813                       # average ReadSharedReq mshr miss latency
system.l2.ReadSharedReq_avg_mshr_miss_latency::total 80430.051813                       # average ReadSharedReq mshr miss latency
system.l2.InvalidateReq_hits::.cpu.data             2                       # number of InvalidateReq hits
system.l2.InvalidateReq_hits::total                 2                       # number of InvalidateReq hits
system.l2.InvalidateReq_misses::.cpu.data           17                       # number of InvalidateReq misses
system.l2.InvalidateReq_misses::total              17                       # number of InvalidateReq misses
system.l2.InvalidateReq_accesses::.cpu.data           19                       # number of InvalidateReq accesses(hits+misses)
system.l2.InvalidateReq_accesses::total            19                       # number of InvalidateReq accesses(hits+misses)
system.l2.InvalidateReq_miss_rate::.cpu.data     0.894737                       # miss rate for InvalidateReq accesses
system.l2.InvalidateReq_miss_rate::total     0.894737                       # miss rate for InvalidateReq accesses
system.l2.InvalidateReq_mshr_misses::.cpu.data           17                       # number of InvalidateReq MSHR misses
system.l2.InvalidateReq_mshr_misses::total           17                       # number of InvalidateReq MSHR misses
system.l2.InvalidateReq_mshr_miss_latency::.cpu.data       493000                       # number of InvalidateReq MSHR miss cycles
system.l2.InvalidateReq_mshr_miss_latency::total       493000                       # number of InvalidateReq MSHR miss cycles
system.l2.InvalidateReq_mshr_miss_rate::.cpu.data     0.894737                       # mshr miss rate for InvalidateReq accesses
system.l2.InvalidateReq_mshr_miss_rate::total     0.894737                       # mshr miss rate for InvalidateReq accesses
system.l2.InvalidateReq_avg_mshr_miss_latency::.cpu.data        29000                       # average InvalidateReq mshr miss latency
system.l2.InvalidateReq_avg_mshr_miss_latency::total        29000                       # average InvalidateReq mshr miss latency
system.l2.tags.pwrStateResidencyTicks::UNDEFINED 114805503000                       # Cumulative time (in ticks) in various power states
system.l2.tags.tagsinuse                 118023.332373                       # Cycle average of tags in use
system.l2.tags.total_refs                     2112373                       # Total number of references to valid blocks.
system.l2.tags.sampled_refs                   1058621                       # Sample count of references to valid blocks.
system.l2.tags.avg_refs                      1.995401                       # Average number of references to valid blocks.
system.l2.tags.warmup_cycle                     87000                       # Cycle when the warmup percentage was hit.
system.l2.tags.occ_blocks::.writebacks       1.915550                       # Average occupied blocks per requestor
system.l2.tags.occ_blocks::.cpu.inst       145.192045                       # Average occupied blocks per requestor
system.l2.tags.occ_blocks::.cpu.data     117876.224778                       # Average occupied blocks per requestor
system.l2.tags.occ_percent::.writebacks      0.000015                       # Average percentage of cache occupancy
system.l2.tags.occ_percent::.cpu.inst        0.001108                       # Average percentage of cache occupancy
system.l2.tags.occ_percent::.cpu.data        0.899324                       # Average percentage of cache occupancy
system.l2.tags.occ_percent::total            0.900447                       # Average percentage of cache occupancy
system.l2.tags.occ_task_id_blocks::1024        131072                       # Occupied blocks per task id
system.l2.tags.age_task_id_blocks_1024::0           96                       # Occupied blocks per task id
system.l2.tags.age_task_id_blocks_1024::1          867                       # Occupied blocks per task id
system.l2.tags.age_task_id_blocks_1024::2         8660                       # Occupied blocks per task id
system.l2.tags.age_task_id_blocks_1024::3        86608                       # Occupied blocks per task id
system.l2.tags.age_task_id_blocks_1024::4        34841                       # Occupied blocks per task id
system.l2.tags.occ_task_id_percent::1024            1                       # Percentage of cache occupancy per task id
system.l2.tags.tag_accesses                  17957773                       # Number of tag accesses
system.l2.tags.data_accesses                 17957773                       # Number of data accesses
system.cpu_voltage_domain.voltage                   1                       # Voltage in Volts
system.mem_ctrls.pwrStateResidencyTicks::UNDEFINED 114805503000                       # Cumulative time (in ticks) in various power states
system.mem_ctrls.bytes_read::.cpu.inst          15840                       # Number of bytes read from this memory
system.mem_ctrls.bytes_read::.cpu.data       16921792                       # Number of bytes read from this memory
system.mem_ctrls.bytes_read::total           16937632                       # Number of bytes read from this memory
system.mem_ctrls.bytes_inst_read::.cpu.inst        15840                       # Number of instructions bytes read from this memory
system.mem_ctrls.bytes_inst_read::total         15840                       # Number of instructions bytes read from this memory
system.mem_ctrls.bytes_written::.writebacks     14819136                       # Number of bytes written to this memory
system.mem_ctrls.bytes_written::total        14819136                       # Number of bytes written to this memory
system.mem_ctrls.num_reads::.cpu.inst             990                       # Number of read requests responded to by this memory
system.mem_ctrls.num_reads::.cpu.data         1057612                       # Number of read requests responded to by this memory
system.mem_ctrls.num_reads::total             1058602                       # Number of read requests responded to by this memory
system.mem_ctrls.num_writes::.writebacks       926196                       # Number of write requests responded to by this memory
system.mem_ctrls.num_writes::total             926196                       # Number of write requests responded to by this memory
system.mem_ctrls.bw_read::.cpu.inst            137972                       # Total read bandwidth from this memory (bytes/s)
system.mem_ctrls.bw_read::.cpu.data         147395304                       # Total read bandwidth from this memory (bytes/s)
system.mem_ctrls.bw_read::total             147533276                       # Total read bandwidth from this memory (bytes/s)
system.mem_ctrls.bw_inst_read::.cpu.inst       137972                       # Instruction read bandwidth from this memory (bytes/s)
system.mem_ctrls.bw_inst_read::total           137972                       # Instruction read bandwidth from this memory (bytes/s)
system.mem_ctrls.bw_write::.writebacks      129080363                       # Write bandwidth from this memory (bytes/s)
system.mem_ctrls.bw_write::total            129080363                       # Write bandwidth from this memory (bytes/s)
system.mem_ctrls.bw_total::.writebacks      129080363                       # Total bandwidth to/from this memory (bytes/s)
system.mem_ctrls.bw_total::.cpu.inst           137972                       # Total bandwidth to/from this memory (bytes/s)
system.mem_ctrls.bw_total::.cpu.data        147395304                       # Total bandwidth to/from this memory (bytes/s)
system.mem_ctrls.bw_total::total            276613639                       # Total bandwidth to/from this memory (bytes/s)
system.mem_ctrls.avgPriority_.writebacks::samples    231766.00                       # Average QoS priority value for accepted requests
system.mem_ctrls.avgPriority_.cpu.inst::samples       990.00                       # Average QoS priority value for accepted requests
system.mem_ctrls.avgPriority_.cpu.data::samples   1057612.00                       # Average QoS priority value for accepted requests
system.mem_ctrls.priorityMinLatency      0.000000018750                       # per QoS priority minimum request to response latency (s)
system.mem_ctrls.priorityMaxLatency      0.003460880500                       # per QoS priority maximum request to response latency (s)
system.mem_ctrls.numReadWriteTurnArounds        14484                       # Number of turnarounds from READ to WRITE
system.mem_ctrls.numWriteReadTurnArounds        14484                       # Number of turnarounds from WRITE to READ
system.mem_ctrls.numStayReadState             3058373                       # Number of times bus staying in READ state
system.mem_ctrls.numStayWriteState             217284                       # Number of times bus staying in WRITE state
system.mem_ctrls.readReqs                     1058602                       # Number of read requests accepted
system.mem_ctrls.writeReqs                     926196                       # Number of write requests accepted
system.mem_ctrls.readBursts                   1058602                       # Number of DRAM read bursts, including those serviced by the write queue
system.mem_ctrls.writeBursts                   926196                       # Number of DRAM write bursts, including those merged in the write queue
system.mem_ctrls.servicedByWrQ                      0                       # Number of DRAM read bursts serviced by the write queue
system.mem_ctrls.mergedWrBursts                694430                       # Number of DRAM write bursts merged with an existing one
system.mem_ctrls.neitherReadNorWriteReqs            0                       # Number of requests that are neither read nor write
system.mem_ctrls.perBankRdBursts::0             66020                       # Per bank write bursts
system.mem_ctrls.perBankRdBursts::1             66376                       # Per bank write bursts
system.mem_ctrls.perBankRdBursts::2             66305                       # Per bank write bursts
system.mem_ctrls.perBankRdBursts::3             66352                       # Per bank write bursts
system.mem_ctrls.perBankRdBursts::4             66247                       # Per bank write bursts
system.mem_ctrls.perBankRdBursts::5             66339                       # Per bank write bursts
system.mem_ctrls.perBankRdBursts::6             66328                       # Per bank write bursts
system.mem_ctrls.perBankRdBursts::7             66186                       # Per bank write bursts
system.mem_ctrls.perBankRdBursts::8             66067                       # Per bank write bursts
system.mem_ctrls.perBankRdBursts::9             66105                       # Per bank write bursts
system.mem_ctrls.perBankRdBursts::10            65983                       # Per bank write bursts
system.mem_ctrls.perBankRdBursts::11            66092                       # Per bank write bursts
system.mem_ctrls.perBankRdBursts::12            66118                       # Per bank write bursts
system.mem_ctrls.perBankRdBursts::13            65948                       # Per bank write bursts
system.mem_ctrls.perBankRdBursts::14            66290                       # Per bank write bursts
system.mem_ctrls.perBankRdBursts::15            65846                       # Per bank write bursts
system.mem_ctrls.perBankWrBursts::0             14420                       # Per bank write bursts
system.mem_ctrls.perBankWrBursts::1             14548                       # Per bank write bursts
system.mem_ctrls.perBankWrBursts::2             14541                       # Per bank write bursts
system.mem_ctrls.perBankWrBursts::3             14549                       # Per bank write bursts
system.mem_ctrls.perBankWrBursts::4             14521                       # Per bank write bursts
system.mem_ctrls.perBankWrBursts::5             14523                       # Per bank write bursts
system.mem_ctrls.perBankWrBursts::6             14536                       # Per bank write bursts
system.mem_ctrls.perBankWrBursts::7             14505                       # Per bank write bursts
system.mem_ctrls.perBankWrBursts::8             14464                       # Per bank write bursts
system.mem_ctrls.perBankWrBursts::9             14464                       # Per bank write bursts
system.mem_ctrls.perBankWrBursts::10            14396                       # Per bank write bursts
system.mem_ctrls.perBankWrBursts::11            14475                       # Per bank write bursts
system.mem_ctrls.perBankWrBursts::12            14485                       # Per bank write bursts
system.mem_ctrls.perBankWrBursts::13            14422                       # Per bank write bursts
system.mem_ctrls.perBankWrBursts::14            14491                       # Per bank write bursts
system.mem_ctrls.perBankWrBursts::15            14408                       # Per bank write bursts
system.mem_ctrls.avgRdQLen                       1.00                       # Average read queue length when enqueuing
system.mem_ctrls.avgWrQLen                      22.16                       # Average write queue length when enqueuing
system.mem_ctrls.totQLat                   6112113000                       # Total ticks spent queuing
system.mem_ctrls.totBusLat                 5293010000                       # Total ticks spent in databus transfers
system.mem_ctrls.totMemAccLat             25960900500                       # Total ticks spent from burst creation until serviced by the DRAM
system.mem_ctrls.avgQLat                      5773.76                       # Average queueing delay per DRAM burst
system.mem_ctrls.avgBusLat                    5000.00                       # Average bus latency per DRAM burst
system.mem_ctrls.avgMemAccLat                24523.76                       # Average memory access latency per DRAM burst
system.mem_ctrls.numRdRetry                         0                       # Number of times read queue was full causing retry
system.mem_ctrls.numWrRetry                         0                       # Number of times write queue was full causing retry
system.mem_ctrls.readRowHits                   976482                       # Number of row buffer hits during reads
system.mem_ctrls.writeRowHits                  215402                       # Number of row buffer hits during writes
system.mem_ctrls.readRowHitRate                 92.24                       # Row buffer hit rate for reads
system.mem_ctrls.writeRowHitRate                92.94                       # Row buffer hit rate for writes
system.mem_ctrls.readPktSize::0                     0                       # Read request sizes (log2)
system.mem_ctrls.readPktSize::1                     0                       # Read request sizes (log2)
system.mem_ctrls.readPktSize::2                     0                       # Read request sizes (log2)
system.mem_ctrls.readPktSize::3                     0                       # Read request sizes (log2)
system.mem_ctrls.readPktSize::4               1058602                       # Read request sizes (log2)
system.mem_ctrls.readPktSize::5                     0                       # Read request sizes (log2)
system.mem_ctrls.readPktSize::6                     0                       # Read request sizes (log2)
system.mem_ctrls.writePktSize::0                    0                       # Write request sizes (log2)
system.mem_ctrls.writePktSize::1                    0                       # Write request sizes (log2)
system.mem_ctrls.writePktSize::2                    0                       # Write request sizes (log2)
system.mem_ctrls.writePktSize::3                    0                       # Write request sizes (log2)
system.mem_ctrls.writePktSize::4               926196                       # Write request sizes (log2)
system.mem_ctrls.writePktSize::5                    0                       # Write request sizes (log2)
system.mem_ctrls.writePktSize::6                    0                       # Write request sizes (log2)
system.mem_ctrls.rdQLenPdf::0                 1058051                       # What read queue length does an incoming req see
system.mem_ctrls.rdQLenPdf::1                     518                       # What read queue length does an incoming req see
system.mem_ctrls.rdQLenPdf::2                      32                       # What read queue length does an incoming req see
system.mem_ctrls.rdQLenPdf::3                       1                       # What read queue length does an incoming req see
system.mem_ctrls.rdQLenPdf::4                       0                       # What read queue length does an incoming req see
system.mem_ctrls.rdQLenPdf::5                       0                       # What read queue length does an incoming req see
system.mem_ctrls.rdQLenPdf::6                       0                       # What read queue length does an incoming req see
system.mem_ctrls.rdQLenPdf::7                       0                       # What read queue length does an incoming req see
system.mem_ctrls.rdQLenPdf::8                       0                       # What read queue length does an incoming req see
system.mem_ctrls.rdQLenPdf::9                       0                       # What read queue length does an incoming req see
system.mem_ctrls.rdQLenPdf::10                      0                       # What read queue length does an incoming req see
system.mem_ctrls.rdQLenPdf::11                      0                       # What read queue length does an incoming req see
system.mem_ctrls.rdQLenPdf::12                      0                       # What read queue length does an incoming req see
system.mem_ctrls.rdQLenPdf::13                      0                       # What read queue length does an incoming req see
system.mem_ctrls.rdQLenPdf::14                      0                       # What read queue length does an incoming req see
system.mem_ctrls.rdQLenPdf::15                      0                       # What read queue length does an incoming req see
system.mem_ctrls.rdQLenPdf::16                      0                       # What read queue length does an incoming req see
system.mem_ctrls.rdQLenPdf::17                      0                       # What read queue length does an incoming req see
system.mem_ctrls.rdQLenPdf::18                      0                       # What read queue length does an incoming req see
system.mem_ctrls.rdQLenPdf::19                      0                       # What read queue length does an incoming req see
system.mem_ctrls.rdQLenPdf::20                      0                       # What read queue length does an incoming req see
system.mem_ctrls.rdQLenPdf::21                      0                       # What read queue length does an incoming req see
system.mem_ctrls.rdQLenPdf::22                      0                       # What read queue length does an incoming req see
system.mem_ctrls.rdQLenPdf::23                      0                       # What read queue length does an incoming req see
system.mem_ctrls.rdQLenPdf::24                      0                       # What read queue length does an incoming req see
system.mem_ctrls.rdQLenPdf::25                      0                       # What read queue length does an incoming req see
system.mem_ctrls.rdQLenPdf::26                      0                       # What read queue length does an incoming req see
system.mem_ctrls.rdQLenPdf::27                      0                       # What read queue length does an incoming req see
system.mem_ctrls.rdQLenPdf::28                      0                       # What read queue length does an incoming req see
system.mem_ctrls.rdQLenPdf::29                      0                       # What read queue length does an incoming req see
system.mem_ctrls.rdQLenPdf::30                      0                       # What read queue length does an incoming req see
system.mem_ctrls.rdQLenPdf::31                      0                       # What read queue length does an incoming req see
system.mem_ctrls.wrQLenPdf::0                       1                       # What write queue length does an incoming req see
system.mem_ctrls.wrQLenPdf::1                       1                       # What write queue length does an incoming req see
system.mem_ctrls.wrQLenPdf::2                       1                       # What write queue length does an incoming req see
system.mem_ctrls.wrQLenPdf::3                       1                       # What write queue length does an incoming req see
system.mem_ctrls.wrQLenPdf::4                       1                       # What write queue length does an incoming req see
system.mem_ctrls.wrQLenPdf::5                       1                       # What write queue length does an incoming req see
system.mem_ctrls.wrQLenPdf::6                       1                       # What write queue length does an incoming req see
system.mem_ctrls.wrQLenPdf::7                       1                       # What write queue length does an incoming req see
system.mem_ctrls.wrQLenPdf::8                       1                       # What write queue length does an incoming req see
system.mem_ctrls.wrQLenPdf::9                       1                       # What write queue length does an incoming req see
system.mem_ctrls.wrQLenPdf::10                      1                       # What write queue length does an incoming req see
system.mem_ctrls.wrQLenPdf::11                      1                       # What write queue length does an incoming req see
system.mem_ctrls.wrQLenPdf::12                      1                       # What write queue length does an incoming req see
system.mem_ctrls.wrQLenPdf::13                      1                       # What write queue length does an incoming req see
system.mem_ctrls.wrQLenPdf::14                      1                       # What write queue length does an incoming req see
system.mem_ctrls.wrQLenPdf::15                      3                       # What write queue length does an incoming req see
system.mem_ctrls.wrQLenPdf::16                      3                       # What write queue length does an incoming req see
system.mem_ctrls.wrQLenPdf::17                  14485                       # What write queue length does an incoming req see
system.mem_ctrls.wrQLenPdf::18                  14484                       # What write queue length does an incoming req see
system.mem_ctrls.wrQLenPdf::19                  14484                       # What write queue length does an incoming req see
system.mem_ctrls.wrQLenPdf::20                  14484                       # What write queue length does an incoming req see
system.mem_ctrls.wrQLenPdf::21                  14484                       # What write queue length does an incoming req see
system.mem_ctrls.wrQLenPdf::22                  14484                       # What write queue length does an incoming req see
system.mem_ctrls.wrQLenPdf::23                  14484                       # What write queue length does an incoming req see
system.mem_ctrls.wrQLenPdf::24                  14484                       # What write queue length does an incoming req see
system.mem_ctrls.wrQLenPdf::25                  14484                       # What write queue length does an incoming req see
system.mem_ctrls.wrQLenPdf::26                  14484                       # What write queue length does an incoming req see
system.mem_ctrls.wrQLenPdf::27                  14484                       # What write queue length does an incoming req see
system.mem_ctrls.wrQLenPdf::28                  14484                       # What write queue length does an incoming req see
system.mem_ctrls.wrQLenPdf::29                  14484                       # What write queue length does an incoming req see
system.mem_ctrls.wrQLenPdf::30                  14484                       # What write queue length does an incoming req see
system.mem_ctrls.wrQLenPdf::31                  14484                       # What write queue length does an incoming req see
system.mem_ctrls.wrQLenPdf::32                  14484                       # What write queue length does an incoming req see
system.mem_ctrls.wrQLenPdf::33                      0                       # What write queue length does an incoming req see
system.mem_ctrls.wrQLenPdf::34                      0                       # What write queue length does an incoming req see
system.mem_ctrls.wrQLenPdf::35                      0                       # What write queue length does an incoming req see
system.mem_ctrls.wrQLenPdf::36                      0                       # What write queue length does an incoming req see
system.mem_ctrls.wrQLenPdf::37                      0                       # What write queue length does an incoming req see
system.mem_ctrls.wrQLenPdf::38                      0                       # What write queue length does an incoming req see
system.mem_ctrls.wrQLenPdf::39                      0                       # What write queue length does an incoming req see
system.mem_ctrls.wrQLenPdf::40                      0                       # What write queue length does an incoming req see
system.mem_ctrls.wrQLenPdf::41                      0                       # What write queue length does an incoming req see
system.mem_ctrls.wrQLenPdf::42                      0                       # What write queue length does an incoming req see
system.mem_ctrls.wrQLenPdf::43                      0                       # What write queue length does an incoming req see
system.mem_ctrls.wrQLenPdf::44                      0                       # What write queue length does an incoming req see
system.mem_ctrls.wrQLenPdf::45                      0                       # What write queue length does an incoming req see
system.mem_ctrls.wrQLenPdf::46                      0                       # What write queue length does an incoming req see
system.mem_ctrls.wrQLenPdf::47                      0                       # What write queue length does an incoming req see
system.mem_ctrls.wrQLenPdf::48                      0                       # What write queue length does an incoming req see
system.mem_ctrls.wrQLenPdf::49                      0                       # What write queue length does an incoming req see
system.mem_ctrls.wrQLenPdf::50                      0                       # What write queue length does an incoming req see
system.mem_ctrls.wrQLenPdf::51                      0                       # What write queue length does an incoming req see
system.mem_ctrls.wrQLenPdf::52                      0                       # What write queue length does an incoming req see
system.mem_ctrls.wrQLenPdf::53                      0                       # What write queue length does an incoming req see
system.mem_ctrls.wrQLenPdf::54                      0                       # What write queue length does an incoming req see
system.mem_ctrls.wrQLenPdf::55                      0                       # What write queue length does an incoming req see
system.mem_ctrls.wrQLenPdf::56                      0                       # What write queue length does an incoming req see
system.mem_ctrls.wrQLenPdf::57                      0                       # What write queue length does an incoming req see
system.mem_ctrls.wrQLenPdf::58                      0                       # What write queue length does an incoming req see
system.mem_ctrls.wrQLenPdf::59                      0                       # What write queue length does an incoming req see
system.mem_ctrls.wrQLenPdf::60                      0                       # What write queue length does an incoming req see
system.mem_ctrls.wrQLenPdf::61                      0                       # What write queue length does an incoming req see
system.mem_ctrls.wrQLenPdf::62                      0                       # What write queue length does an incoming req see
system.mem_ctrls.wrQLenPdf::63                      0                       # What write queue length does an incoming req see
system.mem_ctrls.bytesPerActivate::samples        98465                       # Bytes accessed per row activation
system.mem_ctrls.bytesPerActivate::mean    838.693465                       # Bytes accessed per row activation
system.mem_ctrls.bytesPerActivate::gmean   725.269206                       # Bytes accessed per row activation
system.mem_ctrls.bytesPerActivate::stdev   304.483407                       # Bytes accessed per row activation
system.mem_ctrls.bytesPerActivate::0-127         2386      2.42%      2.42% # Bytes accessed per row activation
[...]
system.cpu.dcache.overall_miss_latency::.cpu.data 212097249000                       # number of overall miss cycles
system.cpu.dcache.overall_miss_latency::total 212097249000                       # number of overall miss cycles
system.cpu.dcache.demand_accesses::.cpu.data      6392942                       # number of demand (read+write) accesses
system.cpu.dcache.demand_accesses::total      6392942                       # number of demand (read+write) accesses
system.cpu.dcache.overall_accesses::.cpu.data      6392999                       # number of overall (read+write) accesses
system.cpu.dcache.overall_accesses::total      6392999                       # number of overall (read+write) accesses
system.cpu.dcache.demand_miss_rate::.cpu.data     0.329304                       # miss rate for demand accesses
system.cpu.dcache.demand_miss_rate::total     0.329304                       # miss rate for demand accesses
system.cpu.dcache.overall_miss_rate::.cpu.data     0.329306                       # miss rate for overall accesses
system.cpu.dcache.overall_miss_rate::total     0.329306                       # miss rate for overall accesses
system.cpu.dcache.demand_avg_miss_latency::.cpu.data 100748.210758                       # average overall miss latency
system.cpu.dcache.demand_avg_miss_latency::total 100748.210758                       # average overall miss latency
system.cpu.dcache.overall_avg_miss_latency::.cpu.data 100746.583668                       # average overall miss latency
system.cpu.dcache.overall_avg_miss_latency::total 100746.583668                       # average overall miss latency
system.cpu.dcache.blocked_cycles::no_mshrs            0                       # number of cycles access was blocked
system.cpu.dcache.blocked_cycles::no_targets            0                       # number of cycles access was blocked
system.cpu.dcache.blocked::no_mshrs                 0                       # number of cycles access was blocked
system.cpu.dcache.blocked::no_targets               0                       # number of cycles access was blocked
system.cpu.dcache.avg_blocked_cycles::no_mshrs          nan                       # average number of cycles each access was blocked
system.cpu.dcache.avg_blocked_cycles::no_targets          nan                       # average number of cycles each access was blocked
system.cpu.dcache.writebacks::.writebacks      1053211                       # number of writebacks
system.cpu.dcache.writebacks::total           1053211                       # number of writebacks
system.cpu.dcache.demand_mshr_hits::.cpu.data      1047556                       # number of demand (read+write) MSHR hits
system.cpu.dcache.demand_mshr_hits::total      1047556                       # number of demand (read+write) MSHR hits
system.cpu.dcache.overall_mshr_hits::.cpu.data      1047556                       # number of overall MSHR hits
system.cpu.dcache.overall_mshr_hits::total      1047556                       # number of overall MSHR hits
system.cpu.dcache.demand_mshr_misses::.cpu.data      1057665                       # number of demand (read+write) MSHR misses
system.cpu.dcache.demand_mshr_misses::total      1057665                       # number of demand (read+write) MSHR misses
system.cpu.dcache.overall_mshr_misses::.cpu.data      1057699                       # number of overall MSHR misses
system.cpu.dcache.overall_mshr_misses::total      1057699                       # number of overall MSHR misses
system.cpu.dcache.demand_mshr_miss_latency::.cpu.data 104481084000                       # number of demand (read+write) MSHR miss cycles
system.cpu.dcache.demand_mshr_miss_latency::total 104481084000                       # number of demand (read+write) MSHR miss cycles
system.cpu.dcache.overall_mshr_miss_latency::.cpu.data 104484900000                       # number of overall MSHR miss cycles
system.cpu.dcache.overall_mshr_miss_latency::total 104484900000                       # number of overall MSHR miss cycles
system.cpu.dcache.demand_mshr_miss_rate::.cpu.data     0.165443                       # mshr miss rate for demand accesses
system.cpu.dcache.demand_mshr_miss_rate::total     0.165443                       # mshr miss rate for demand accesses
system.cpu.dcache.overall_mshr_miss_rate::.cpu.data     0.165446                       # mshr miss rate for overall accesses
system.cpu.dcache.overall_mshr_miss_rate::total     0.165446                       # mshr miss rate for overall accesses
system.cpu.dcache.demand_avg_mshr_miss_latency::.cpu.data 98784.666222                       # average overall mshr miss latency
system.cpu.dcache.demand_avg_mshr_miss_latency::total 98784.666222                       # average overall mshr miss latency
system.cpu.dcache.overall_avg_mshr_miss_latency::.cpu.data 98785.098596                       # average overall mshr miss latency
system.cpu.dcache.overall_avg_mshr_miss_latency::total 98785.098596                       # average overall mshr miss latency
system.cpu.dcache.replacements                1053604                       # number of replacements
system.cpu.dcache.ReadReq_hits::.cpu.data      2034825                       # number of ReadReq hits
system.cpu.dcache.ReadReq_hits::total         2034825                       # number of ReadReq hits
system.cpu.dcache.ReadReq_misses::.cpu.data          418                       # number of ReadReq misses
system.cpu.dcache.ReadReq_misses::total           418                       # number of ReadReq misses
system.cpu.dcache.ReadReq_miss_latency::.cpu.data     39597000                       # number of ReadReq miss cycles
system.cpu.dcache.ReadReq_miss_latency::total     39597000                       # number of ReadReq miss cycles
system.cpu.dcache.ReadReq_accesses::.cpu.data      2035243                       # number of ReadReq accesses(hits+misses)
system.cpu.dcache.ReadReq_accesses::total      2035243                       # number of ReadReq accesses(hits+misses)
system.cpu.dcache.ReadReq_miss_rate::.cpu.data     0.000205                       # miss rate for ReadReq accesses
system.cpu.dcache.ReadReq_miss_rate::total     0.000205                       # miss rate for ReadReq accesses
system.cpu.dcache.ReadReq_avg_miss_latency::.cpu.data 94729.665072                       # average ReadReq miss latency
system.cpu.dcache.ReadReq_avg_miss_latency::total 94729.665072                       # average ReadReq miss latency
system.cpu.dcache.ReadReq_mshr_hits::.cpu.data           17                       # number of ReadReq MSHR hits
system.cpu.dcache.ReadReq_mshr_hits::total           17                       # number of ReadReq MSHR hits
system.cpu.dcache.ReadReq_mshr_misses::.cpu.data          401                       # number of ReadReq MSHR misses
system.cpu.dcache.ReadReq_mshr_misses::total          401                       # number of ReadReq MSHR misses
system.cpu.dcache.ReadReq_mshr_miss_latency::.cpu.data     37441000                       # number of ReadReq MSHR miss cycles
system.cpu.dcache.ReadReq_mshr_miss_latency::total     37441000                       # number of ReadReq MSHR miss cycles
system.cpu.dcache.ReadReq_mshr_miss_rate::.cpu.data     0.000197                       # mshr miss rate for ReadReq accesses
system.cpu.dcache.ReadReq_mshr_miss_rate::total     0.000197                       # mshr miss rate for ReadReq accesses
system.cpu.dcache.ReadReq_avg_mshr_miss_latency::.cpu.data 93369.077307                       # average ReadReq mshr miss latency
system.cpu.dcache.ReadReq_avg_mshr_miss_latency::total 93369.077307                       # average ReadReq mshr miss latency
system.cpu.dcache.WriteReq_hits::.cpu.data      2252883                       # number of WriteReq hits
system.cpu.dcache.WriteReq_hits::total        2252883                       # number of WriteReq hits
system.cpu.dcache.WriteReq_misses::.cpu.data      2104784                       # number of WriteReq misses
system.cpu.dcache.WriteReq_misses::total      2104784                       # number of WriteReq misses
system.cpu.dcache.WriteReq_miss_latency::.cpu.data 212056680000                       # number of WriteReq miss cycles
system.cpu.dcache.WriteReq_miss_latency::total 212056680000                       # number of WriteReq miss cycles
system.cpu.dcache.WriteReq_accesses::.cpu.data      4357667                       # number of WriteReq accesses(hits+misses)
system.cpu.dcache.WriteReq_accesses::total      4357667                       # number of WriteReq accesses(hits+misses)
system.cpu.dcache.WriteReq_miss_rate::.cpu.data     0.483007                       # miss rate for WriteReq accesses
system.cpu.dcache.WriteReq_miss_rate::total     0.483007                       # miss rate for WriteReq accesses
system.cpu.dcache.WriteReq_avg_miss_latency::.cpu.data 100749.853667                       # average WriteReq miss latency
system.cpu.dcache.WriteReq_avg_miss_latency::total 100749.853667                       # average WriteReq miss latency
system.cpu.dcache.WriteReq_mshr_hits::.cpu.data      1047539                       # number of WriteReq MSHR hits
system.cpu.dcache.WriteReq_mshr_hits::total      1047539                       # number of WriteReq MSHR hits
system.cpu.dcache.WriteReq_mshr_misses::.cpu.data      1057245                       # number of WriteReq MSHR misses
system.cpu.dcache.WriteReq_mshr_misses::total      1057245                       # number of WriteReq MSHR misses
system.cpu.dcache.WriteReq_mshr_miss_latency::.cpu.data 104442709000                       # number of WriteReq MSHR miss cycles
system.cpu.dcache.WriteReq_mshr_miss_latency::total 104442709000                       # number of WriteReq MSHR miss cycles
system.cpu.dcache.WriteReq_mshr_miss_rate::.cpu.data     0.242617                       # mshr miss rate for WriteReq accesses
system.cpu.dcache.WriteReq_mshr_miss_rate::total     0.242617                       # mshr miss rate for WriteReq accesses
system.cpu.dcache.WriteReq_avg_mshr_miss_latency::.cpu.data 98787.612143                       # average WriteReq mshr miss latency
system.cpu.dcache.WriteReq_avg_mshr_miss_latency::total 98787.612143                       # average WriteReq mshr miss latency
system.cpu.dcache.SoftPFReq_hits::.cpu.data           23                       # number of SoftPFReq hits
system.cpu.dcache.SoftPFReq_hits::total            23                       # number of SoftPFReq hits
system.cpu.dcache.SoftPFReq_misses::.cpu.data           34                       # number of SoftPFReq misses
system.cpu.dcache.SoftPFReq_misses::total           34                       # number of SoftPFReq misses
system.cpu.dcache.SoftPFReq_accesses::.cpu.data           57                       # number of SoftPFReq accesses(hits+misses)
system.cpu.dcache.SoftPFReq_accesses::total           57                       # number of SoftPFReq accesses(hits+misses)
system.cpu.dcache.SoftPFReq_miss_rate::.cpu.data     0.596491                       # miss rate for SoftPFReq accesses
system.cpu.dcache.SoftPFReq_miss_rate::total     0.596491                       # miss rate for SoftPFReq accesses
system.cpu.dcache.SoftPFReq_mshr_misses::.cpu.data           34                       # number of SoftPFReq MSHR misses
system.cpu.dcache.SoftPFReq_mshr_misses::total           34                       # number of SoftPFReq MSHR misses
system.cpu.dcache.SoftPFReq_mshr_miss_latency::.cpu.data      3816000                       # number of SoftPFReq MSHR miss cycles
system.cpu.dcache.SoftPFReq_mshr_miss_latency::total      3816000                       # number of SoftPFReq MSHR miss cycles
system.cpu.dcache.SoftPFReq_mshr_miss_rate::.cpu.data     0.596491                       # mshr miss rate for SoftPFReq accesses
system.cpu.dcache.SoftPFReq_mshr_miss_rate::total     0.596491                       # mshr miss rate for SoftPFReq accesses
system.cpu.dcache.SoftPFReq_avg_mshr_miss_latency::.cpu.data 112235.294118                       # average SoftPFReq mshr miss latency
system.cpu.dcache.SoftPFReq_avg_mshr_miss_latency::total 112235.294118                       # average SoftPFReq mshr miss latency
system.cpu.dcache.WriteLineReq_hits::.cpu.data           13                       # number of WriteLineReq hits
system.cpu.dcache.WriteLineReq_hits::total           13                       # number of WriteLineReq hits
system.cpu.dcache.WriteLineReq_misses::.cpu.data           19                       # number of WriteLineReq misses
system.cpu.dcache.WriteLineReq_misses::total           19                       # number of WriteLineReq misses
system.cpu.dcache.WriteLineReq_miss_latency::.cpu.data       972000                       # number of WriteLineReq miss cycles
system.cpu.dcache.WriteLineReq_miss_latency::total       972000                       # number of WriteLineReq miss cycles
system.cpu.dcache.WriteLineReq_accesses::.cpu.data           32                       # number of WriteLineReq accesses(hits+misses)
system.cpu.dcache.WriteLineReq_accesses::total           32                       # number of WriteLineReq accesses(hits+misses)
system.cpu.dcache.WriteLineReq_miss_rate::.cpu.data     0.593750                       # miss rate for WriteLineReq accesses
system.cpu.dcache.WriteLineReq_miss_rate::total     0.593750                       # miss rate for WriteLineReq accesses
system.cpu.dcache.WriteLineReq_avg_miss_latency::.cpu.data 51157.894737                       # average WriteLineReq miss latency
system.cpu.dcache.WriteLineReq_avg_miss_latency::total 51157.894737                       # average WriteLineReq miss latency
system.cpu.dcache.WriteLineReq_mshr_misses::.cpu.data           19                       # number of WriteLineReq MSHR misses
system.cpu.dcache.WriteLineReq_mshr_misses::total           19                       # number of WriteLineReq MSHR misses
system.cpu.dcache.WriteLineReq_mshr_miss_latency::.cpu.data       934000                       # number of WriteLineReq MSHR miss cycles
system.cpu.dcache.WriteLineReq_mshr_miss_latency::total       934000                       # number of WriteLineReq MSHR miss cycles
system.cpu.dcache.WriteLineReq_mshr_miss_rate::.cpu.data     0.593750                       # mshr miss rate for WriteLineReq accesses
system.cpu.dcache.WriteLineReq_mshr_miss_rate::total     0.593750                       # mshr miss rate for WriteLineReq accesses
system.cpu.dcache.WriteLineReq_avg_mshr_miss_latency::.cpu.data 49157.894737                       # average WriteLineReq mshr miss latency
system.cpu.dcache.WriteLineReq_avg_mshr_miss_latency::total 49157.894737                       # average WriteLineReq mshr miss latency
system.cpu.dcache.LoadLockedReq_hits::.cpu.data           19                       # number of LoadLockedReq hits
system.cpu.dcache.LoadLockedReq_hits::total           19                       # number of LoadLockedReq hits
system.cpu.dcache.LoadLockedReq_misses::.cpu.data            1                       # number of LoadLockedReq misses
system.cpu.dcache.LoadLockedReq_misses::total            1                       # number of LoadLockedReq misses
system.cpu.dcache.LoadLockedReq_miss_latency::.cpu.data       109000                       # number of LoadLockedReq miss cycles
system.cpu.dcache.LoadLockedReq_miss_latency::total       109000                       # number of LoadLockedReq miss cycles
system.cpu.dcache.LoadLockedReq_accesses::.cpu.data           20                       # number of LoadLockedReq accesses(hits+misses)
system.cpu.dcache.LoadLockedReq_accesses::total           20                       # number of LoadLockedReq accesses(hits+misses)
system.cpu.dcache.LoadLockedReq_miss_rate::.cpu.data     0.050000                       # miss rate for LoadLockedReq accesses
system.cpu.dcache.LoadLockedReq_miss_rate::total     0.050000                       # miss rate for LoadLockedReq accesses
system.cpu.dcache.LoadLockedReq_avg_miss_latency::.cpu.data       109000                       # average LoadLockedReq miss latency
system.cpu.dcache.LoadLockedReq_avg_miss_latency::total       109000                       # average LoadLockedReq miss latency
system.cpu.dcache.LoadLockedReq_mshr_misses::.cpu.data            1                       # number of LoadLockedReq MSHR misses
system.cpu.dcache.LoadLockedReq_mshr_misses::total            1                       # number of LoadLockedReq MSHR misses
system.cpu.dcache.LoadLockedReq_mshr_miss_latency::.cpu.data       107000                       # number of LoadLockedReq MSHR miss cycles
system.cpu.dcache.LoadLockedReq_mshr_miss_latency::total       107000                       # number of LoadLockedReq MSHR miss cycles
system.cpu.dcache.LoadLockedReq_mshr_miss_rate::.cpu.data     0.050000                       # mshr miss rate for LoadLockedReq accesses
system.cpu.dcache.LoadLockedReq_mshr_miss_rate::total     0.050000                       # mshr miss rate for LoadLockedReq accesses
system.cpu.dcache.LoadLockedReq_avg_mshr_miss_latency::.cpu.data       107000                       # average LoadLockedReq mshr miss latency
system.cpu.dcache.LoadLockedReq_avg_mshr_miss_latency::total       107000                       # average LoadLockedReq mshr miss latency
system.cpu.dcache.StoreCondReq_hits::.cpu.data           20                       # number of StoreCondReq hits
system.cpu.dcache.StoreCondReq_hits::total           20                       # number of StoreCondReq hits
system.cpu.dcache.StoreCondReq_accesses::.cpu.data           20                       # number of StoreCondReq accesses(hits+misses)
system.cpu.dcache.StoreCondReq_accesses::total           20                       # number of StoreCondReq accesses(hits+misses)
system.cpu.dcache.tags.pwrStateResidencyTicks::UNDEFINED 114805503000                       # Cumulative time (in ticks) in various power states
system.cpu.dcache.tags.tagsinuse          4072.733728                       # Cycle average of tags in use
system.cpu.dcache.tags.total_refs             5345483                       # Total number of references to valid blocks.
system.cpu.dcache.tags.sampled_refs           1057700                       # Sample count of references to valid blocks.
system.cpu.dcache.tags.avg_refs              5.053874                       # Average number of references to valid blocks.
system.cpu.dcache.tags.warmup_cycle            319000                       # Cycle when the warmup percentage was hit.
system.cpu.dcache.tags.occ_blocks::.cpu.data  4072.733728                       # Average occupied blocks per requestor
system.cpu.dcache.tags.occ_percent::.cpu.data     0.994320                       # Average percentage of cache occupancy
system.cpu.dcache.tags.occ_percent::total     0.994320                       # Average percentage of cache occupancy
system.cpu.dcache.tags.occ_task_id_blocks::1024         4096                       # Occupied blocks per task id
system.cpu.dcache.tags.age_task_id_blocks_1024::0           97                       # Occupied blocks per task id
system.cpu.dcache.tags.age_task_id_blocks_1024::1          866                       # Occupied blocks per task id
system.cpu.dcache.tags.age_task_id_blocks_1024::2         3133                       # Occupied blocks per task id
system.cpu.dcache.tags.occ_task_id_percent::1024            1                       # Percentage of cache occupancy per task id
system.cpu.dcache.tags.tag_accesses          13843778                       # Number of tag accesses
system.cpu.dcache.tags.data_accesses         13843778                       # Number of data accesses
system.cpu.itb.walker.pwrStateResidencyTicks::UNDEFINED 114805503000                       # Cumulative time (in ticks) in various power states
system.cpu.itb.stage2_mmu.stage2_tlb.walker.pwrStateResidencyTicks::UNDEFINED 114805503000                       # Cumulative time (in ticks) in various power states

---------- End Simulation Statistics   ----------
