
---------- Begin Simulation Statistics ----------
final_tick                                23048895000                       # Number of ticks from beginning of simulation (restored from checkpoints and never reset)
host_inst_rate                                 236049                       # Simulator instruction rate (inst/s)
host_mem_usage                                 686772                       # Number of bytes of host memory used
host_op_rate                                   236716                       # Simulator op (including micro ops) rate (op/s)
host_seconds                                    42.36                       # Real time elapsed on the host
host_tick_rate                              544062260                       # Simulator tick rate (ticks/s)
sim_freq                                 1000000000000                       # Frequency of simulated ticks
sim_insts                                    10000000                       # Number of instructions simulated
sim_ops                                      10028311                       # Number of ops (including micro ops) simulated
sim_seconds                                  0.023049                       # Number of seconds simulated
sim_ticks                                 23048895000                       # Number of ticks simulated
system.cpu.branchPred.BTBCorrect                    0                       # Number of correct BTB predictions (this stat may not work properly.
system.cpu.branchPred.BTBHitPct             98.735817                       # BTB Hit Percentage
system.cpu.branchPred.BTBHits                  300304                       # Number of BTB hits
system.cpu.branchPred.BTBLookups               304149                       # Number of BTB lookups
system.cpu.branchPred.RASInCorrect                  5                       # Number of incorrect RAS predictions.
system.cpu.branchPred.condIncorrect              7165                       # Number of conditional branches incorrect
system.cpu.branchPred.condPredicted            603905                       # Number of conditional branches predicted
system.cpu.branchPred.indirectHits                129                       # Number of indirect target hits.
system.cpu.branchPred.indirectLookups             423                       # Number of indirect predictor lookups.
system.cpu.branchPred.indirectMisses              294                       # Number of indirect misses.
system.cpu.branchPred.lookups                  716878                       # Number of BP lookups
system.cpu.branchPred.usedRAS                    6957                       # Number of times the RAS was used to get a target.
system.cpu.branchPredindirectMispredicted          168                       # Number of mispredicted indirect branches.
system.cpu.committedInsts                    10000000                       # Number of instructions committed
system.cpu.committedOps                      10028311                       # Number of ops (including micro ops) committed
system.cpu.cpi                               2.304889                       # CPI: cycles per instruction
system.cpu.discardedOps                         15377                       # Number of ops (including micro ops) which were discarded before commit
system.cpu.dtb.accesses                             0                       # DTB accesses
system.cpu.dtb.align_faults                         0                       # Number of TLB faults due to alignment restrictions
system.cpu.dtb.domain_faults                        0                       # Number of TLB faults due to domain restrictions
system.cpu.dtb.flush_entries                        0                       # Number of entries that have been flushed from TLB
system.cpu.dtb.flush_tlb                            0                       # Number of times complete TLB was flushed
system.cpu.dtb.flush_tlb_asid                       0                       # Number of times TLB was flushed by ASID
system.cpu.dtb.flush_tlb_mva                        0                       # Number of times TLB was flushed by MVA
system.cpu.dtb.flush_tlb_mva_asid                   0                       # Number of times TLB was flushed by MVA & ASID
system.cpu.dtb.hits                                 0                       # DTB hits
system.cpu.dtb.inst_accesses                        0                       # ITB inst accesses
system.cpu.dtb.inst_hits                            0                       # ITB inst hits
system.cpu.dtb.inst_misses                          0                       # ITB inst misses
system.cpu.dtb.misses                               0                       # DTB misses
system.cpu.dtb.perms_faults                         0                       # Number of TLB faults due to permissions restrictions
system.cpu.dtb.prefetch_faults                      0                       # Number of TLB faults due to prefetch
system.cpu.dtb.read_accesses                        0                       # DTB read accesses
system.cpu.dtb.read_hits                            0                       # DTB read hits
system.cpu.dtb.read_misses                          0                       # DTB read misses
system.cpu.dtb.stage2_mmu.stage2_tlb.accesses            0                       # DTB accesses
system.cpu.dtb.stage2_mmu.stage2_tlb.align_faults            0                       # Number of TLB faults due to alignment restrictions
system.cpu.dtb.stage2_mmu.stage2_tlb.domain_faults            0                       # Number of TLB faults due to domain restrictions
system.cpu.dtb.stage2_mmu.stage2_tlb.flush_entries            0                       # Number of entries that have been flushed from TLB
system.cpu.dtb.stage2_mmu.stage2_tlb.flush_tlb            0                       # Number of times complete TLB was flushed
system.cpu.dtb.stage2_mmu.stage2_tlb.flush_tlb_asid            0                       # Number of times TLB was flushed by ASID
system.cpu.dtb.stage2_mmu.stage2_tlb.flush_tlb_mva            0                       # Number of times TLB was flushed by MVA
system.cpu.dtb.stage2_mmu.stage2_tlb.flush_tlb_mva_asid            0                       # Number of times TLB was flushed by MVA & ASID
system.cpu.dtb.stage2_mmu.stage2_tlb.hits            0                       # DTB hits
system.cpu.dtb.stage2_mmu.stage2_tlb.inst_accesses            0                       # ITB inst accesses
system.cpu.dtb.stage2_mmu.stage2_tlb.inst_hits            0                       # ITB inst hits
system.cpu.dtb.stage2_mmu.stage2_tlb.inst_misses            0                       # ITB inst misses
system.cpu.dtb.stage2_mmu.stage2_tlb.misses            0                       # DTB misses
system.cpu.dtb.stage2_mmu.stage2_tlb.perms_faults            0                       # Number of TLB faults due to permissions restrictions
system.cpu.dtb.stage2_mmu.stage2_tlb.prefetch_faults            0                       # Number of TLB faults due to prefetch
system.cpu.dtb.stage2_mmu.stage2_tlb.read_accesses            0                       # DTB read accesses
system.cpu.dtb.stage2_mmu.stage2_tlb.read_hits            0                       # DTB read hits
system.cpu.dtb.stage2_mmu.stage2_tlb.read_misses            0                       # DTB read misses
system.cpu.dtb.stage2_mmu.stage2_tlb.walker.walkRequestOrigin_Requested::Data            0                       # Table walker requests started/completed, data/inst
system.cpu.dtb.stage2_mmu.stage2_tlb.walker.walkRequestOrigin_Requested::Inst            0                       # Table walker requests started/completed, data/inst
system.cpu.dtb.stage2_mmu.stage2_tlb.walker.walkRequestOrigin_Requested::total            0                       # Table walker requests started/completed, data/inst
system.cpu.dtb.stage2_mmu.stage2_tlb.walker.walkRequestOrigin_Completed::Data            0                       # Table walker requests started/completed, data/inst
system.cpu.dtb.stage2_mmu.stage2_tlb.walker.walkRequestOrigin_Completed::Inst            0                       # Table walker requests started/completed, data/inst
system.cpu.dtb.stage2_mmu.stage2_tlb.walker.walkRequestOrigin_Completed::total            0                       # Table walker requests started/completed, data/inst
system.cpu.dtb.stage2_mmu.stage2_tlb.walker.walkRequestOrigin::total            0                       # Table walker requests started/completed, data/inst
system.cpu.dtb.stage2_mmu.stage2_tlb.walker.walks            0                       # Table walker walks requested
system.cpu.dtb.stage2_mmu.stage2_tlb.write_accesses            0                       # DTB write accesses
system.cpu.dtb.stage2_mmu.stage2_tlb.write_hits            0                       # DTB write hits
system.cpu.dtb.stage2_mmu.stage2_tlb.write_misses            0                       # DTB write misses
system.cpu.dtb.walker.walkRequestOrigin_Requested::Data            0                       # Table walker requests started/completed, data/inst
system.cpu.dtb.walker.walkRequestOrigin_Requested::Inst            0                       # Table walker requests started/completed, data/inst
system.cpu.dtb.walker.walkRequestOrigin_Requested::total            0                       # Table walker requests started/completed, data/inst
system.cpu.dtb.walker.walkRequestOrigin_Completed::Data            0                       # Table walker requests started/completed, data/inst
system.cpu.dtb.walker.walkRequestOrigin_Completed::Inst            0                       # Table walker requests started/completed, data/inst
system.cpu.dtb.walker.walkRequestOrigin_Completed::total            0                       # Table walker requests started/completed, data/inst
system.cpu.dtb.walker.walkRequestOrigin::total            0                       # Table walker requests started/completed, data/inst
system.cpu.dtb.walker.walks                         0                       # Table walker walks requested
system.cpu.dtb.write_accesses                       0                       # DTB write accesses
system.cpu.dtb.write_hits                           0                       # DTB write hits
system.cpu.dtb.write_misses                         0                       # DTB write misses
system.cpu.fetch2.amo_instructions                  0                       # Number of memory atomic instructions successfully decoded
system.cpu.fetch2.fp_instructions                   0                       # Number of floating point instructions successfully decoded
system.cpu.fetch2.int_instructions            2169584                       # Number of integer instructions successfully decoded
system.cpu.fetch2.load_instructions           5801192                       # Number of memory load instructions successfully decoded
system.cpu.fetch2.store_instructions          1454444                       # Number of memory store instructions successfully decoded
system.cpu.fetch2.vec_instructions                  0                       # Number of SIMD instructions successfully decoded
system.cpu.idleCycles                         8559847                       # Total number of cycles that the object has spent stopped
system.cpu.ipc                               0.433860                       # IPC: instructions per cycle
system.cpu.itb.accesses                             0                       # DTB accesses
system.cpu.itb.align_faults                         0                       # Number of TLB faults due to alignment restrictions
system.cpu.itb.domain_faults                        0                       # Number of TLB faults due to domain restrictions
system.cpu.itb.flush_entries                        0                       # Number of entries that have been flushed from TLB
system.cpu.itb.flush_tlb                            0                       # Number of times complete TLB was flushed
system.cpu.itb.flush_tlb_asid                       0                       # Number of times TLB was flushed by ASID
system.cpu.itb.flush_tlb_mva                        0                       # Number of times TLB was flushed by MVA
system.cpu.itb.flush_tlb_mva_asid                   0                       # Number of times TLB was flushed by MVA & ASID
system.cpu.itb.hits                                 0                       # DTB hits
system.cpu.itb.inst_accesses                        0                       # ITB inst accesses
system.cpu.itb.inst_hits                            0                       # ITB inst hits
system.cpu.itb.inst_misses                          0                       # ITB inst misses
system.cpu.itb.misses                               0                       # DTB misses
system.cpu.itb.perms_faults                         0                       # Number of TLB faults due to permissions restrictions
system.cpu.itb.prefetch_faults                      0                       # Number of TLB faults due to prefetch
system.cpu.itb.read_accesses                        0                       # DTB read accesses
system.cpu.itb.read_hits                            0                       # DTB read hits
system.cpu.itb.read_misses                          0                       # DTB read misses
system.cpu.itb.stage2_mmu.stage2_tlb.accesses            0                       # DTB accesses
system.cpu.itb.stage2_mmu.stage2_tlb.align_faults            0                       # Number of TLB faults due to alignment restrictions
system.cpu.itb.stage2_mmu.stage2_tlb.domain_faults            0                       # Number of TLB faults due to domain restrictions
system.cpu.itb.stage2_mmu.stage2_tlb.flush_entries            0                       # Number of entries that have been flushed from TLB
system.cpu.itb.stage2_mmu.stage2_tlb.flush_tlb            0                       # Number of times complete TLB was flushed
system.cpu.itb.stage2_mmu.stage2_tlb.flush_tlb_asid            0                       # Number of times TLB was flushed by ASID
system.cpu.itb.stage2_mmu.stage2_tlb.flush_tlb_mva            0                       # Number of times TLB was flushed by MVA
system.cpu.itb.stage2_mmu.stage2_tlb.flush_tlb_mva_asid            0                       # Number of times TLB was flushed by MVA & ASID
system.cpu.itb.stage2_mmu.stage2_tlb.hits            0                       # DTB hits
system.cpu.itb.stage2_mmu.stage2_tlb.inst_accesses            0                       # ITB inst accesses
system.cpu.itb.stage2_mmu.stage2_tlb.inst_hits            0                       # ITB inst hits
system.cpu.itb.stage2_mmu.stage2_tlb.inst_misses            0                       # ITB inst misses
system.cpu.itb.stage2_mmu.stage2_tlb.misses            0                       # DTB misses
system.cpu.itb.stage2_mmu.stage2_tlb.perms_faults            0                       # Number of TLB faults due to permissions restrictions
system.cpu.itb.stage2_mmu.stage2_tlb.prefetch_faults            0                       # Number of TLB faults due to prefetch
system.cpu.itb.stage2_mmu.stage2_tlb.read_accesses            0                       # DTB read accesses
system.cpu.itb.stage2_mmu.stage2_tlb.read_hits            0                       # DTB read hits
system.cpu.itb.stage2_mmu.stage2_tlb.read_misses            0                       # DTB read misses
system.cpu.itb.stage2_mmu.stage2_tlb.walker.walkRequestOrigin_Requested::Data            0                       # Table walker requests started/completed, data/inst
system.cpu.itb.stage2_mmu.stage2_tlb.walker.walkRequestOrigin_Requested::Inst            0                       # Table walker requests started/completed, data/inst
system.cpu.itb.stage2_mmu.stage2_tlb.walker.walkRequestOrigin_Requested::total            0                       # Table walker requests started/completed, data/inst
system.cpu.itb.stage2_mmu.stage2_tlb.walker.walkRequestOrigin_Completed::Data            0                       # Table walker requests started/completed, data/inst
system.cpu.itb.stage2_mmu.stage2_tlb.walker.walkRequestOrigin_Completed::Inst            0                       # Table walker requests started/completed, data/inst
system.cpu.itb.stage2_mmu.stage2_tlb.walker.walkRequestOrigin_Completed::total            0                       # Table walker requests started/completed, data/inst
system.cpu.itb.stage2_mmu.stage2_tlb.walker.walkRequestOrigin::total            0                       # Table walker requests started/completed, data/inst
system.cpu.itb.stage2_mmu.stage2_tlb.walker.walks            0                       # Table walker walks requested
system.cpu.itb.stage2_mmu.stage2_tlb.write_accesses            0                       # DTB write accesses
system.cpu.itb.stage2_mmu.stage2_tlb.write_hits            0                       # DTB write hits
system.cpu.itb.stage2_mmu.stage2_tlb.write_misses            0                       # DTB write misses
system.cpu.itb.walker.walkRequestOrigin_Requested::Data            0                       # Table walker requests started/completed, data/inst
system.cpu.itb.walker.walkRequestOrigin_Requested::Inst            0                       # Table walker requests started/completed, data/inst
system.cpu.itb.walker.walkRequestOrigin_Requested::total            0                       # Table walker requests started/completed, data/inst
system.cpu.itb.walker.walkRequestOrigin_Completed::Data            0                       # Table walker requests started/completed, data/inst
system.cpu.itb.walker.walkRequestOrigin_Completed::Inst            0                       # Table walker requests started/completed, data/inst
system.cpu.itb.walker.walkRequestOrigin_Completed::total            0                       # Table walker requests started/completed, data/inst
system.cpu.itb.walker.walkRequestOrigin::total            0                       # Table walker requests started/completed, data/inst
system.cpu.itb.walker.walks                         0                       # Table walker walks requested
system.cpu.itb.write_accesses                       0                       # DTB write accesses
system.cpu.itb.write_hits                           0                       # DTB write hits
system.cpu.itb.write_misses                         0                       # DTB write misses
system.cpu.numCycles                         23048895                       # number of cpu cycles simulated
system.cpu.numFetchSuspends                         0                       # Number of times Execute suspended instruction fetching
system.cpu.numWorkItemsCompleted                    0                       # number of work items this cpu completed
system.cpu.numWorkItemsStarted                      0                       # number of work items this cpu started
system.cpu.op_class_0::No_OpClass                   0      0.00%      0.00% # Class of committed instruction
system.cpu.op_class_0::IntAlu                 2830172     28.22%     28.22% # Class of committed instruction
system.cpu.op_class_0::IntMult                  20549      0.20%     28.43% # Class of committed instruction
system.cpu.op_class_0::IntDiv                       0      0.00%     28.43% # Class of committed instruction
system.cpu.op_class_0::FloatAdd                     0      0.00%     28.43% # Class of committed instruction
system.cpu.op_class_0::FloatCmp                     0      0.00%     28.43% # Class of committed instruction
system.cpu.op_class_0::FloatCvt                     0      0.00%     28.43% # Class of committed instruction
system.cpu.op_class_0::FloatMult                    0      0.00%     28.43% # Class of committed instruction
system.cpu.op_class_0::FloatMultAcc                 0      0.00%     28.43% # Class of committed instruction
system.cpu.op_class_0::FloatDiv                     0      0.00%     28.43% # Class of committed instruction
system.cpu.op_class_0::FloatMisc                    0      0.00%     28.43% # Class of committed instruction
system.cpu.op_class_0::FloatSqrt                    0      0.00%     28.43% # Class of committed instruction
system.cpu.op_class_0::SimdAdd                      0      0.00%     28.43% # Class of committed instruction
system.cpu.op_class_0::SimdAddAcc                   0      0.00%     28.43% # Class of committed instruction
system.cpu.op_class_0::SimdAlu                      0      0.00%     28.43% # Class of committed instruction
system.cpu.op_class_0::SimdCmp                      0      0.00%     28.43% # Class of committed instruction
system.cpu.op_class_0::SimdCvt                      0      0.00%     28.43% # Class of committed instruction
system.cpu.op_class_0::SimdMisc                     0      0.00%     28.43% # Class of committed instruction
system.cpu.op_class_0::SimdMult                     0      0.00%     28.43% # Class of committed instruction
system.cpu.op_class_0::SimdMultAcc                  0      0.00%     28.43% # Class of committed instruction
system.cpu.op_class_0::SimdShift                    0      0.00%     28.43% # Class of committed instruction
system.cpu.op_class_0::SimdShiftAcc                 0      0.00%     28.43% # Class of committed instruction
system.cpu.op_class_0::SimdDiv                      0      0.00%     28.43% # Class of committed instruction
system.cpu.op_class_0::SimdSqrt                     0      0.00%     28.43% # Class of committed instruction
system.cpu.op_class_0::SimdFloatAdd                 0      0.00%     28.43% # Class of committed instruction
system.cpu.op_class_0::SimdFloatAlu                 0      0.00%     28.43% # Class of committed instruction
system.cpu.op_class_0::SimdFloatCmp                 0      0.00%     28.43% # Class of committed instruction
system.cpu.op_class_0::SimdFloatCvt                 0      0.00%     28.43% # Class of committed instruction
system.cpu.op_class_0::SimdFloatDiv                 0      0.00%     28.43% # Class of committed instruction
system.cpu.op_class_0::SimdFloatMisc               18      0.00%     28.43% # Class of committed instruction
system.cpu.op_class_0::SimdFloatMult                0      0.00%     28.43% # Class of committed instruction
system.cpu.op_class_0::SimdFloatMultAcc             0      0.00%     28.43% # Class of committed instruction
system.cpu.op_class_0::SimdFloatSqrt                0      0.00%     28.43% # Class of committed instruction
system.cpu.op_class_0::SimdReduceAdd                0      0.00%     28.43% # Class of committed instruction
system.cpu.op_class_0::SimdReduceAlu                0      0.00%     28.43% # Class of committed instruction
system.cpu.op_class_0::SimdReduceCmp                0      0.00%     28.43% # Class of committed instruction
system.cpu.op_class_0::SimdFloatReduceAdd            0      0.00%     28.43% # Class of committed instruction
system.cpu.op_class_0::SimdFloatReduceCmp            0      0.00%     28.43% # Class of committed instruction
system.cpu.op_class_0::SimdAes                      0      0.00%     28.43% # Class of committed instruction
system.cpu.op_class_0::SimdAesMix                   0      0.00%     28.43% # Class of committed instruction
system.cpu.op_class_0::SimdSha1Hash                 0      0.00%     28.43% # Class of committed instruction
system.cpu.op_class_0::SimdSha1Hash2                0      0.00%     28.43% # Class of committed instruction
system.cpu.op_class_0::SimdSha256Hash               0      0.00%     28.43% # Class of committed instruction
system.cpu.op_class_0::SimdSha256Hash2              0      0.00%     28.43% # Class of committed instruction
system.cpu.op_class_0::SimdShaSigma2                0      0.00%     28.43% # Class of committed instruction
system.cpu.op_class_0::SimdShaSigma3                0      0.00%     28.43% # Class of committed instruction
system.cpu.op_class_0::SimdPredAlu                  0      0.00%     28.43% # Class of committed instruction
system.cpu.op_class_0::MemRead                5721878     57.06%     85.48% # Class of committed instruction
system.cpu.op_class_0::MemWrite               1455694     14.52%    100.00% # Class of committed instruction
system.cpu.op_class_0::FloatMemRead                 0      0.00%    100.00% # Class of committed instruction
system.cpu.op_class_0::FloatMemWrite                0      0.00%    100.00% # Class of committed instruction
system.cpu.op_class_0::IprAccess                    0      0.00%    100.00% # Class of committed instruction
system.cpu.op_class_0::InstPrefetch                 0      0.00%    100.00% # Class of committed instruction
system.cpu.op_class_0::total                 10028311                       # Class of committed instruction
system.cpu.tickCycles                        14489048                       # Number of cycles that the object actually ticked
system.cpu.workload.numSyscalls                    84                       # Number of system calls
system.membus.snoop_filter.hit_multi_requests            0                       # Number of requests hitting in the snoop filter with multiple (>1) holders of the requested data.
system.membus.snoop_filter.hit_multi_snoops            0                       # Number of snoops hitting in the snoop filter with multiple (>1) holders of the requested data.
system.membus.snoop_filter.hit_single_requests        63080                       # Number of requests hitting in the snoop filter with a single holder of the requested data.
system.membus.snoop_filter.hit_single_snoops            0                       # Number of snoops hitting in the snoop filter with a single holder of the requested data.
system.membus.snoop_filter.tot_requests        142656                       # Total number of requests made to the snoop filter.
system.membus.snoop_filter.tot_snoops               0                       # Total number of snoops made to the snoop filter.
system.tol2bus.snoop_filter.hit_multi_requests           46                       # Number of requests hitting in the snoop filter with multiple (>1) holders of the requested data.
system.tol2bus.snoop_filter.hit_multi_snoops            0                       # Number of snoops hitting in the snoop filter with multiple (>1) holders of the requested data.
system.tol2bus.snoop_filter.hit_single_requests        80271                       # Number of requests hitting in the snoop filter with a single holder of the requested data.
system.tol2bus.snoop_filter.hit_single_snoops          201                       # Number of snoops hitting in the snoop filter with a single holder of the requested data.
system.tol2bus.snoop_filter.tot_requests       161240                       # Total number of requests made to the snoop filter.
system.tol2bus.snoop_filter.tot_snoops            201                       # Total number of snoops made to the snoop filter.
system.membus.pwrStateResidencyTicks::UNDEFINED  23048895000                       # Cumulative time (in ticks) in various power states
system.membus.trans_dist::ReadResp              29088                       # Transaction distribution
system.membus.trans_dist::WritebackDirty        46248                       # Transaction distribution
system.membus.trans_dist::CleanEvict            16823                       # Transaction distribution
system.membus.trans_dist::ReadExReq             50497                       # Transaction distribution
system.membus.trans_dist::ReadExResp            50497                       # Transaction distribution
system.membus.trans_dist::ReadSharedReq         29088                       # Transaction distribution
system.membus.pkt_count_system.l2.mem_side::system.mem_ctrls.port       222241                       # Packet count per connected master and slave (bytes)
system.membus.pkt_count::total                 222241                       # Packet count per connected master and slave (bytes)
system.membus.pkt_size_system.l2.mem_side::system.mem_ctrls.port     16106624                       # Cumulative packet size per connected master and slave (bytes)
system.membus.pkt_size::total                16106624                       # Cumulative packet size per connected master and slave (bytes)
system.membus.snoops                                0                       # Total snoops (count)
system.membus.snoopTraffic                          0                       # Total snoop traffic (bytes)
system.membus.snoop_fanout::samples             79585                       # Request fanout histogram
system.membus.snoop_fanout::mean                    0                       # Request fanout histogram
system.membus.snoop_fanout::stdev                   0                       # Request fanout histogram
system.membus.snoop_fanout::underflows              0      0.00%      0.00% # Request fanout histogram
system.membus.snoop_fanout::0                   79585    100.00%    100.00% # Request fanout histogram
system.membus.snoop_fanout::1                       0      0.00%    100.00% # Request fanout histogram
system.membus.snoop_fanout::overflows               0      0.00%    100.00% # Request fanout histogram
system.membus.snoop_fanout::min_value               0                       # Request fanout histogram
system.membus.snoop_fanout::max_value               0                       # Request fanout histogram
system.membus.snoop_fanout::total               79585                       # Request fanout histogram
system.membus.respLayer1.occupancy          738727250                       # Layer occupancy (ticks)
system.membus.respLayer1.utilization              3.2                       # Layer utilization (%)
system.membus.reqLayer0.occupancy           512640000                       # Layer occupancy (ticks)
system.membus.reqLayer0.utilization               2.2                       # Layer utilization (%)
system.tol2bus.pwrStateResidencyTicks::UNDEFINED  23048895000                       # Cumulative time (in ticks) in various power states
system.tol2bus.trans_dist::ReadResp             30473                       # Transaction distribution
system.tol2bus.trans_dist::WritebackDirty        96870                       # Transaction distribution
system.tol2bus.trans_dist::WritebackClean          266                       # Transaction distribution
system.tol2bus.trans_dist::CleanEvict           46399                       # Transaction distribution
system.tol2bus.trans_dist::ReadExReq            50504                       # Transaction distribution
system.tol2bus.trans_dist::ReadExResp           50504                       # Transaction distribution
system.tol2bus.trans_dist::ReadCleanReq           468                       # Transaction distribution
system.tol2bus.trans_dist::ReadSharedReq        30005                       # Transaction distribution
system.tol2bus.pkt_count_system.cpu.icache.mem_side::system.l2.cpu_side         1202                       # Packet count per connected master and slave (bytes)
system.tol2bus.pkt_count_system.cpu.dcache.mem_side::system.l2.cpu_side       241015                       # Packet count per connected master and slave (bytes)
system.tol2bus.pkt_count::total                242217                       # Packet count per connected master and slave (bytes)
system.tol2bus.pkt_size_system.cpu.icache.mem_side::system.l2.cpu_side        93952                       # Cumulative packet size per connected master and slave (bytes)
system.tol2bus.pkt_size_system.cpu.dcache.mem_side::system.l2.cpu_side     16784768                       # Cumulative packet size per connected master and slave (bytes)
system.tol2bus.pkt_size::total               16878720                       # Cumulative packet size per connected master and slave (bytes)
system.tol2bus.snoops                           63272                       # Total snoops (count)
system.tol2bus.snoopTraffic                   5919744                       # Total snoop traffic (bytes)
system.tol2bus.snoop_fanout::samples           144249                       # Request fanout histogram
system.tol2bus.snoop_fanout::mean            0.001768                       # Request fanout histogram
system.tol2bus.snoop_fanout::stdev           0.042008                       # Request fanout histogram
system.tol2bus.snoop_fanout::underflows             0      0.00%      0.00% # Request fanout histogram
system.tol2bus.snoop_fanout::0                 143994     99.82%     99.82% # Request fanout histogram
system.tol2bus.snoop_fanout::1                    255      0.18%    100.00% # Request fanout histogram
system.tol2bus.snoop_fanout::2                      0      0.00%    100.00% # Request fanout histogram
system.tol2bus.snoop_fanout::overflows              0      0.00%    100.00% # Request fanout histogram
system.tol2bus.snoop_fanout::min_value              0                       # Request fanout histogram
system.tol2bus.snoop_fanout::max_value              1                       # Request fanout histogram
system.tol2bus.snoop_fanout::total             144249                       # Request fanout histogram
system.tol2bus.reqLayer0.occupancy          364792000                       # Layer occupancy (ticks)
system.tol2bus.reqLayer0.utilization              1.6                       # Layer utilization (%)
system.tol2bus.respLayer1.occupancy         402549995                       # Layer occupancy (ticks)
system.tol2bus.respLayer1.utilization             1.7                       # Layer utilization (%)
system.tol2bus.respLayer0.occupancy           2340000                       # Layer occupancy (ticks)
system.tol2bus.respLayer0.utilization             0.0                       # Layer utilization (%)
system.voltage_domain.voltage                       1                       # Voltage in Volts
system.clk_domain.clock                          1000                       # Clock period in ticks
system.l2.pwrStateResidencyTicks::UNDEFINED  23048895000                       # Cumulative time (in ticks) in various power states
system.l2.demand_hits::.cpu.inst                  116                       # number of demand (read+write) hits
system.l2.demand_hits::.cpu.data                 1271                       # number of demand (read+write) hits
system.l2.demand_hits::total                     1387                       # number of demand (read+write) hits
system.l2.overall_hits::.cpu.inst                 116                       # number of overall hits
system.l2.overall_hits::.cpu.data                1271                       # number of overall hits
system.l2.overall_hits::total                    1387                       # number of overall hits
system.l2.demand_misses::.cpu.inst                352                       # number of demand (read+write) misses
system.l2.demand_misses::.cpu.data              79238                       # number of demand (read+write) misses
system.l2.demand_misses::total                  79590                       # number of demand (read+write) misses
system.l2.overall_misses::.cpu.inst               352                       # number of overall misses
system.l2.overall_misses::.cpu.data             79238                       # number of overall misses
system.l2.overall_misses::total                 79590                       # number of overall misses
system.l2.demand_miss_latency::.cpu.inst     36659000                       # number of demand (read+write) miss cycles
system.l2.demand_miss_latency::.cpu.data   8577319000                       # number of demand (read+write) miss cycles
system.l2.demand_miss_latency::total       8613978000                       # number of demand (read+write) miss cycles
system.l2.overall_miss_latency::.cpu.inst     36659000                       # number of overall miss cycles
system.l2.overall_miss_latency::.cpu.data   8577319000                       # number of overall miss cycles
system.l2.overall_miss_latency::total      8613978000                       # number of overall miss cycles
system.l2.demand_accesses::.cpu.inst              468                       # number of demand (read+write) accesses
system.l2.demand_accesses::.cpu.data            80509                       # number of demand (read+write) accesses
system.l2.demand_accesses::total                80977                       # number of demand (read+write) accesses
system.l2.overall_accesses::.cpu.inst             468                       # number of overall (read+write) accesses
system.l2.overall_accesses::.cpu.data           80509                       # number of overall (read+write) accesses
system.l2.overall_accesses::total               80977                       # number of overall (read+write) accesses
system.l2.demand_miss_rate::.cpu.inst        0.752137                       # miss rate for demand accesses
system.l2.demand_miss_rate::.cpu.data        0.984213                       # miss rate for demand accesses
system.l2.demand_miss_rate::total            0.982872                       # miss rate for demand accesses
system.l2.overall_miss_rate::.cpu.inst       0.752137                       # miss rate for overall accesses
system.l2.overall_miss_rate::.cpu.data       0.984213                       # miss rate for overall accesses
system.l2.overall_miss_rate::total           0.982872                       # miss rate for overall accesses
system.l2.demand_avg_miss_latency::.cpu.inst 104144.886364                       # average overall miss latency
system.l2.demand_avg_miss_latency::.cpu.data 108247.545370                       # average overall miss latency
system.l2.demand_avg_miss_latency::total 108229.400678                       # average overall miss latency
system.l2.overall_avg_miss_latency::.cpu.inst 104144.886364                       # average overall miss latency
system.l2.overall_avg_miss_latency::.cpu.data 108247.545370                       # average overall miss latency
system.l2.overall_avg_miss_latency::total 108229.400678                       # average overall miss latency
system.l2.blocked_cycles::no_mshrs                  0                       # number of cycles access was blocked
system.l2.blocked_cycles::no_targets                0                       # number of cycles access was blocked
system.l2.blocked::no_mshrs                         0                       # number of cycles access was blocked
system.l2.blocked::no_targets                       0                       # number of cycles access was blocked
system.l2.avg_blocked_cycles::no_mshrs            nan                       # average number of cycles each access was blocked
system.l2.avg_blocked_cycles::no_targets          nan                       # average number of cycles each access was blocked
system.l2.writebacks::.writebacks               46248                       # number of writebacks
system.l2.writebacks::total                     46248                       # number of writebacks
system.l2.demand_mshr_hits::.cpu.data               5                       # number of demand (read+write) MSHR hits
system.l2.demand_mshr_hits::total                   5                       # number of demand (read+write) MSHR hits
system.l2.overall_mshr_hits::.cpu.data              5                       # number of overall MSHR hits
system.l2.overall_mshr_hits::total                  5                       # number of overall MSHR hits
system.l2.demand_mshr_misses::.cpu.inst           352                       # number of demand (read+write) MSHR misses
system.l2.demand_mshr_misses::.cpu.data         79233                       # number of demand (read+write) MSHR misses
system.l2.demand_mshr_misses::total             79585                       # number of demand (read+write) MSHR misses
system.l2.overall_mshr_misses::.cpu.inst          352                       # number of overall MSHR misses
system.l2.overall_mshr_misses::.cpu.data        79233                       # number of overall MSHR misses
system.l2.overall_mshr_misses::total            79585                       # number of overall MSHR misses
system.l2.demand_mshr_miss_latency::.cpu.inst     29619000                       # number of demand (read+write) MSHR miss cycles
system.l2.demand_mshr_miss_latency::.cpu.data   6992220000                       # number of demand (read+write) MSHR miss cycles
system.l2.demand_mshr_miss_latency::total   7021839000                       # number of demand (read+write) MSHR miss cycles
system.l2.overall_mshr_miss_latency::.cpu.inst     29619000                       # number of overall MSHR miss cycles
system.l2.overall_mshr_miss_latency::.cpu.data   6992220000                       # number of overall MSHR miss cycles
system.l2.overall_mshr_miss_latency::total   7021839000                       # number of overall MSHR miss cycles
system.l2.demand_mshr_miss_rate::.cpu.inst     0.752137                       # mshr miss rate for demand accesses
system.l2.demand_mshr_miss_rate::.cpu.data     0.984151                       # mshr miss rate for demand accesses
system.l2.demand_mshr_miss_rate::total       0.982810                       # mshr miss rate for demand accesses
system.l2.overall_mshr_miss_rate::.cpu.inst     0.752137                       # mshr miss rate for overall accesses
system.l2.overall_mshr_miss_rate::.cpu.data     0.984151                       # mshr miss rate for overall accesses
system.l2.overall_mshr_miss_rate::total      0.982810                       # mshr miss rate for overall accesses
system.l2.demand_avg_mshr_miss_latency::.cpu.inst 84144.886364                       # average overall mshr miss latency
system.l2.demand_avg_mshr_miss_latency::.cpu.data 88248.835712                       # average overall mshr miss latency
system.l2.demand_avg_mshr_miss_latency::total 88230.684174                       # average overall mshr miss latency
system.l2.overall_avg_mshr_miss_latency::.cpu.inst 84144.886364                       # average overall mshr miss latency
system.l2.overall_avg_mshr_miss_latency::.cpu.data 88248.835712                       # average overall mshr miss latency
system.l2.overall_avg_mshr_miss_latency::total 88230.684174                       # average overall mshr miss latency
system.l2.replacements                          63272                       # number of replacements
system.l2.WritebackDirty_hits::.writebacks        50622                       # number of WritebackDirty hits
system.l2.WritebackDirty_hits::total            50622                       # number of WritebackDirty hits
system.l2.WritebackDirty_accesses::.writebacks        50622                       # number of WritebackDirty accesses(hits+misses)
system.l2.WritebackDirty_accesses::total        50622                       # number of WritebackDirty accesses(hits+misses)
system.l2.WritebackClean_hits::.writebacks          253                       # number of WritebackClean hits
system.l2.WritebackClean_hits::total              253                       # number of WritebackClean hits
system.l2.WritebackClean_accesses::.writebacks          253                       # number of WritebackClean accesses(hits+misses)
system.l2.WritebackClean_accesses::total          253                       # number of WritebackClean accesses(hits+misses)
system.l2.ReadExReq_hits::.cpu.data                 7                       # number of ReadExReq hits
system.l2.ReadExReq_hits::total                     7                       # number of ReadExReq hits
system.l2.ReadExReq_misses::.cpu.data           50497                       # number of ReadExReq misses
system.l2.ReadExReq_misses::total               50497                       # number of ReadExReq misses
system.l2.ReadExReq_miss_latency::.cpu.data   5555740000                       # number of ReadExReq miss cycles
system.l2.ReadExReq_miss_latency::total    5555740000                       # number of ReadExReq miss cycles
system.l2.ReadExReq_accesses::.cpu.data         50504                       # number of ReadExReq accesses(hits+misses)
system.l2.ReadExReq_accesses::total             50504                       # number of ReadExReq accesses(hits+misses)
system.l2.ReadExReq_miss_rate::.cpu.data     0.999861                       # miss rate for ReadExReq accesses
system.l2.ReadExReq_miss_rate::total         0.999861                       # miss rate for ReadExReq accesses
system.l2.ReadExReq_avg_miss_latency::.cpu.data 110021.189378                       # average ReadExReq miss latency
system.l2.ReadExReq_avg_miss_latency::total 110021.189378                       # average ReadExReq miss latency
system.l2.ReadExReq_mshr_misses::.cpu.data        50497                       # number of ReadExReq MSHR misses
system.l2.ReadExReq_mshr_misses::total          50497                       # number of ReadExReq MSHR misses
system.l2.ReadExReq_mshr_miss_latency::.cpu.data   4545800000                       # number of ReadExReq MSHR miss cycles
system.l2.ReadExReq_mshr_miss_latency::total   4545800000                       # number of ReadExReq MSHR miss cycles
system.l2.ReadExReq_mshr_miss_rate::.cpu.data     0.999861                       # mshr miss rate for ReadExReq accesses
system.l2.ReadExReq_mshr_miss_rate::total     0.999861                       # mshr miss rate for ReadExReq accesses
system.l2.ReadExReq_avg_mshr_miss_latency::.cpu.data 90021.189378                       # average ReadExReq mshr miss latency
system.l2.ReadExReq_avg_mshr_miss_latency::total 90021.189378                       # average ReadExReq mshr miss latency
system.l2.ReadCleanReq_hits::.cpu.inst            116                       # number of ReadCleanReq hits
system.l2.ReadCleanReq_hits::total                116                       # number of ReadCleanReq hits
system.l2.ReadCleanReq_misses::.cpu.inst          352                       # number of ReadCleanReq misses
system.l2.ReadCleanReq_misses::total              352                       # number of ReadCleanReq misses
system.l2.ReadCleanReq_miss_latency::.cpu.inst     36659000                       # number of ReadCleanReq miss cycles
system.l2.ReadCleanReq_miss_latency::total     36659000                       # number of ReadCleanReq miss cycles
system.l2.ReadCleanReq_accesses::.cpu.inst          468                       # number of ReadCleanReq accesses(hits+misses)
system.l2.ReadCleanReq_accesses::total            468                       # number of ReadCleanReq accesses(hits+misses)
system.l2.ReadCleanReq_miss_rate::.cpu.inst     0.752137                       # miss rate for ReadCleanReq accesses
system.l2.ReadCleanReq_miss_rate::total      0.752137                       # miss rate for ReadCleanReq accesses
system.l2.ReadCleanReq_avg_miss_latency::.cpu.inst 104144.886364                       # average ReadCleanReq miss latency
system.l2.ReadCleanReq_avg_miss_latency::total 104144.886364                       # average ReadCleanReq miss latency
system.l2.ReadCleanReq_mshr_misses::.cpu.inst          352                       # number of ReadCleanReq MSHR misses
system.l2.ReadCleanReq_mshr_misses::total          352                       # number of ReadCleanReq MSHR misses
system.l2.ReadCleanReq_mshr_miss_latency::.cpu.inst     29619000                       # number of ReadCleanReq MSHR miss cycles
system.l2.ReadCleanReq_mshr_miss_latency::total     29619000                       # number of ReadCleanReq MSHR miss cycles
system.l2.ReadCleanReq_mshr_miss_rate::.cpu.inst     0.752137                       # mshr miss rate for ReadCleanReq accesses
system.l2.ReadCleanReq_mshr_miss_rate::total     0.752137                       # mshr miss rate for ReadCleanReq accesses
system.l2.ReadCleanReq_avg_mshr_miss_latency::.cpu.inst 84144.886364                       # average ReadCleanReq mshr miss latency
system.l2.ReadCleanReq_avg_mshr_miss_latency::total 84144.886364                       # average ReadCleanReq mshr miss latency
system.l2.ReadSharedReq_hits::.cpu.data          1264                       # number of ReadSharedReq hits
system.l2.ReadSharedReq_hits::total              1264                       # number of ReadSharedReq hits
system.l2.ReadSharedReq_misses::.cpu.data        28741                       # number of ReadSharedReq misses
system.l2.ReadSharedReq_misses::total           28741                       # number of ReadSharedReq misses
system.l2.ReadSharedReq_miss_latency::.cpu.data   3021579000                       # number of ReadSharedReq miss cycles
system.l2.ReadSharedReq_miss_latency::total   3021579000                       # number of ReadSharedReq miss cycles
system.l2.ReadSharedReq_accesses::.cpu.data        30005                       # number of ReadSharedReq accesses(hits+misses)
system.l2.ReadSharedReq_accesses::total         30005                       # number of ReadSharedReq accesses(hits+misses)
system.l2.ReadSharedReq_miss_rate::.cpu.data     0.957874                       # miss rate for ReadSharedReq accesses
system.l2.ReadSharedReq_miss_rate::total     0.957874                       # miss rate for ReadSharedReq accesses
system.l2.ReadSharedReq_avg_miss_latency::.cpu.data 105131.310671                       # average ReadSharedReq miss latency
system.l2.ReadSharedReq_avg_miss_latency::total 105131.310671                       # average ReadSharedReq miss latency
system.l2.ReadSharedReq_mshr_hits::.cpu.data            5                       # number of ReadSharedReq MSHR hits
system.l2.ReadSharedReq_mshr_hits::total            5                       # number of ReadSharedReq MSHR hits
system.l2.ReadSharedReq_mshr_misses::.cpu.data        28736                       # number of ReadSharedReq MSHR misses
system.l2.ReadSharedReq_mshr_misses::total        28736                       # number of ReadSharedReq MSHR misses
system.l2.ReadSharedReq_mshr_miss_latency::.cpu.data   2446420000                       # number of ReadSharedReq MSHR miss cycles
system.l2.ReadSharedReq_mshr_miss_latency::total   2446420000                       # number of ReadSharedReq MSHR miss cycles
system.l2.ReadSharedReq_mshr_miss_rate::.cpu.data     0.957707                       # mshr miss rate for ReadSharedReq accesses
system.l2.ReadSharedReq_mshr_miss_rate::total     0.957707                       # mshr miss rate for ReadSharedReq accesses
system.l2.ReadSharedReq_avg_mshr_miss_latency::.cpu.data 85134.326281                       # average ReadSharedReq mshr miss latency
system.l2.ReadSharedReq_avg_mshr_miss_latency::total 85134.326281                       # average ReadSharedReq mshr miss latency
system.l2.tags.pwrStateResidencyTicks::UNDEFINED  23048895000                       # Cumulative time (in ticks) in various power states
system.l2.tags.tagsinuse                 14294.660162                       # Cycle average of tags in use
system.l2.tags.total_refs                      161189                       # Total number of references to valid blocks.
system.l2.tags.sampled_refs                     79656                       # Sample count of references to valid blocks.
system.l2.tags.avg_refs                      2.023564                       # Average number of references to valid blocks.
system.l2.tags.warmup_cycle                     92000                       # Cycle when the warmup percentage was hit.
system.l2.tags.occ_blocks::.writebacks      39.204505                       # Average occupied blocks per requestor
system.l2.tags.occ_blocks::.cpu.inst        82.523361                       # Average occupied blocks per requestor
system.l2.tags.occ_blocks::.cpu.data     14172.932295                       # Average occupied blocks per requestor
system.l2.tags.occ_percent::.writebacks      0.002393                       # Average percentage of cache occupancy
system.l2.tags.occ_percent::.cpu.inst        0.005037                       # Average percentage of cache occupancy
system.l2.tags.occ_percent::.cpu.data        0.865047                       # Average percentage of cache occupancy
system.l2.tags.occ_percent::total            0.872477                       # Average percentage of cache occupancy
system.l2.tags.occ_task_id_blocks::1024         16384                       # Occupied blocks per task id
system.l2.tags.age_task_id_blocks_1024::0            1                       # Occupied blocks per task id
system.l2.tags.age_task_id_blocks_1024::1            4                       # Occupied blocks per task id
system.l2.tags.age_task_id_blocks_1024::2           81                       # Occupied blocks per task id
system.l2.tags.age_task_id_blocks_1024::3          907                       # Occupied blocks per task id
system.l2.tags.age_task_id_blocks_1024::4        15391                       # Occupied blocks per task id
system.l2.tags.occ_task_id_percent::1024            1                       # Percentage of cache occupancy per task id
system.l2.tags.tag_accesses                   1369208                       # Number of tag accesses
system.l2.tags.data_accesses                  1369208                       # Number of data accesses
system.cpu_voltage_domain.voltage                   1                       # Voltage in Volts
system.mem_ctrls.pwrStateResidencyTicks::UNDEFINED  23048895000                       # Cumulative time (in ticks) in various power states
system.mem_ctrls.bytes_read::.cpu.inst          45056                       # Number of bytes read from this memory
system.mem_ctrls.bytes_read::.cpu.data       10141824                       # Number of bytes read from this memory
system.mem_ctrls.bytes_read::total           10186880                       # Number of bytes read from this memory
system.mem_ctrls.bytes_inst_read::.cpu.inst        45056                       # Number of instructions bytes read from this memory
system.mem_ctrls.bytes_inst_read::total         45056                       # Number of instructions bytes read from this memory
system.mem_ctrls.bytes_written::.writebacks      5919744                       # Number of bytes written to this memory
system.mem_ctrls.bytes_written::total         5919744                       # Number of bytes written to this memory
system.mem_ctrls.num_reads::.cpu.inst             352                       # Number of read requests responded to by this memory
system.mem_ctrls.num_reads::.cpu.data           79233                       # Number of read requests responded to by this memory
system.mem_ctrls.num_reads::total               79585                       # Number of read requests responded to by this memory
system.mem_ctrls.num_writes::.writebacks        46248                       # Number of write requests responded to by this memory
system.mem_ctrls.num_writes::total              46248                       # Number of write requests responded to by this memory
system.mem_ctrls.bw_read::.cpu.inst           1954801                       # Total read bandwidth from this memory (bytes/s)
system.mem_ctrls.bw_read::.cpu.data         440013458                       # Total read bandwidth from this memory (bytes/s)
system.mem_ctrls.bw_read::total             441968259                       # Total read bandwidth from this memory (bytes/s)
system.mem_ctrls.bw_inst_read::.cpu.inst      1954801                       # Instruction read bandwidth from this memory (bytes/s)
system.mem_ctrls.bw_inst_read::total          1954801                       # Instruction read bandwidth from this memory (bytes/s)
system.mem_ctrls.bw_write::.writebacks      256834178                       # Write bandwidth from this memory (bytes/s)
system.mem_ctrls.bw_write::total            256834178                       # Write bandwidth from this memory (bytes/s)
system.mem_ctrls.bw_total::.writebacks      256834178                       # Total bandwidth to/from this memory (bytes/s)
system.mem_ctrls.bw_total::.cpu.inst          1954801                       # Total bandwidth to/from this memory (bytes/s)
system.mem_ctrls.bw_total::.cpu.data        440013458                       # Total bandwidth to/from this memory (bytes/s)
system.mem_ctrls.bw_total::total            698802437                       # Total bandwidth to/from this memory (bytes/s)
system.mem_ctrls.avgPriority_.writebacks::samples     92496.00                       # Average QoS priority value for accepted requests
system.mem_ctrls.avgPriority_.cpu.inst::samples       704.00                       # Average QoS priority value for accepted requests
system.mem_ctrls.avgPriority_.cpu.data::samples    158466.00                       # Average QoS priority value for accepted requests
system.mem_ctrls.priorityMinLatency      0.000000018750                       # per QoS priority minimum request to response latency (s)
system.mem_ctrls.priorityMaxLatency      0.006795675500                       # per QoS priority maximum request to response latency (s)
system.mem_ctrls.numReadWriteTurnArounds         5722                       # Number of turnarounds from READ to WRITE
system.mem_ctrls.numWriteReadTurnArounds         5722                       # Number of turnarounds from WRITE to READ
system.mem_ctrls.numStayReadState              281313                       # Number of times bus staying in READ state
system.mem_ctrls.numStayWriteState              86848                       # Number of times bus staying in WRITE state
system.mem_ctrls.readReqs                       79585                       # Number of read requests accepted
system.mem_ctrls.writeReqs                      46248                       # Number of write requests accepted
system.mem_ctrls.readBursts                    159170                       # Number of DRAM read bursts, including those serviced by the write queue
system.mem_ctrls.writeBursts                    92496                       # Number of DRAM write bursts, including those merged in the write queue
system.mem_ctrls.servicedByWrQ                      0                       # Number of DRAM read bursts serviced by the write queue
system.mem_ctrls.mergedWrBursts                     0                       # Number of DRAM write bursts merged with an existing one
system.mem_ctrls.neitherReadNorWriteReqs            0                       # Number of requests that are neither read nor write
system.mem_ctrls.perBankRdBursts::0             10216                       # Per bank write bursts
system.mem_ctrls.perBankRdBursts::1             10038                       # Per bank write bursts
system.mem_ctrls.perBankRdBursts::2              9998                       # Per bank write bursts
system.mem_ctrls.perBankRdBursts::3              9884                       # Per bank write bursts
system.mem_ctrls.perBankRdBursts::4             10002                       # Per bank write bursts
system.mem_ctrls.perBankRdBursts::5              9980                       # Per bank write bursts
system.mem_ctrls.perBankRdBursts::6              9958                       # Per bank write bursts
system.mem_ctrls.perBankRdBursts::7             10070                       # Per bank write bursts
system.mem_ctrls.perBankRdBursts::8              9854                       # Per bank write bursts
system.mem_ctrls.perBankRdBursts::9              9790                       # Per bank write bursts
system.mem_ctrls.perBankRdBursts::10             9914                       # Per bank write bursts
system.mem_ctrls.perBankRdBursts::11             9880                       # Per bank write bursts
system.mem_ctrls.perBankRdBursts::12             9952                       # Per bank write bursts
system.mem_ctrls.perBankRdBursts::13             9850                       # Per bank write bursts
system.mem_ctrls.perBankRdBursts::14             9812                       # Per bank write bursts
system.mem_ctrls.perBankRdBursts::15             9972                       # Per bank write bursts
system.mem_ctrls.perBankWrBursts::0              5802                       # Per bank write bursts
system.mem_ctrls.perBankWrBursts::1              5873                       # Per bank write bursts
system.mem_ctrls.perBankWrBursts::2              5914                       # Per bank write bursts
system.mem_ctrls.perBankWrBursts::3              5866                       # Per bank write bursts
system.mem_ctrls.perBankWrBursts::4              5804                       # Per bank write bursts
system.mem_ctrls.perBankWrBursts::5              5780                       # Per bank write bursts
system.mem_ctrls.perBankWrBursts::6              5786                       # Per bank write bursts
system.mem_ctrls.perBankWrBursts::7              5836                       # Per bank write bursts
system.mem_ctrls.perBankWrBursts::8              5768                       # Per bank write bursts
system.mem_ctrls.perBankWrBursts::9              5694                       # Per bank write bursts
system.mem_ctrls.perBankWrBursts::10             5696                       # Per bank write bursts
system.mem_ctrls.perBankWrBursts::11             5704                       # Per bank write bursts
system.mem_ctrls.perBankWrBursts::12             5782                       # Per bank write bursts
system.mem_ctrls.perBankWrBursts::13             5768                       # Per bank write bursts
system.mem_ctrls.perBankWrBursts::14             5710                       # Per bank write bursts
system.mem_ctrls.perBankWrBursts::15             5682                       # Per bank write bursts
system.mem_ctrls.avgRdQLen                       2.12                       # Average read queue length when enqueuing
system.mem_ctrls.avgWrQLen                      26.05                       # Average write queue length when enqueuing
system.mem_ctrls.totQLat                   2486160750                       # Total ticks spent queuing
system.mem_ctrls.totBusLat                  795850000                       # Total ticks spent in databus transfers
system.mem_ctrls.totMemAccLat              5470598250                       # Total ticks spent from burst creation until serviced by the DRAM
system.mem_ctrls.avgQLat                     15619.53                       # Average queueing delay per DRAM burst
system.mem_ctrls.avgBusLat                    5000.00                       # Average bus latency per DRAM burst
system.mem_ctrls.avgMemAccLat                34369.53                       # Average memory access latency per DRAM burst
system.mem_ctrls.numRdRetry                         0                       # Number of times read queue was full causing retry
system.mem_ctrls.numWrRetry                         0                       # Number of times write queue was full causing retry
system.mem_ctrls.readRowHits                   146603                       # Number of row buffer hits during reads
system.mem_ctrls.writeRowHits                   84915                       # Number of row buffer hits during writes
system.mem_ctrls.readRowHitRate                 92.10                       # Row buffer hit rate for reads
system.mem_ctrls.writeRowHitRate                91.80                       # Row buffer hit rate for writes
system.mem_ctrls.readPktSize::0                     0                       # Read request sizes (log2)
system.mem_ctrls.readPktSize::1                     0                       # Read request sizes (log2)
system.mem_ctrls.readPktSize::2                     0                       # Read request sizes (log2)
system.mem_ctrls.readPktSize::3                     0                       # Read request sizes (log2)
system.mem_ctrls.readPktSize::4                     0                       # Read request sizes (log2)
system.mem_ctrls.readPktSize::5                     0                       # Read request sizes (log2)
system.mem_ctrls.readPktSize::6                159170                       # Read request sizes (log2)
system.mem_ctrls.writePktSize::0                    0                       # Write request sizes (log2)
system.mem_ctrls.writePktSize::1                    0                       # Write request sizes (log2)
system.mem_ctrls.writePktSize::2                    0                       # Write request sizes (log2)
system.mem_ctrls.writePktSize::3                    0                       # Write request sizes (log2)
system.mem_ctrls.writePktSize::4                    0                       # Write request sizes (log2)
system.mem_ctrls.writePktSize::5                    0                       # Write request sizes (log2)
system.mem_ctrls.writePktSize::6                92496                       # Write request sizes (log2)
system.mem_ctrls.rdQLenPdf::0                   65669                       # What read queue length does an incoming req see
system.mem_ctrls.rdQLenPdf::1                   73910                       # What read queue length does an incoming req see
system.mem_ctrls.rdQLenPdf::2                   13913                       # What read queue length does an incoming req see
system.mem_ctrls.rdQLenPdf::3                    5672                       # What read queue length does an incoming req see
system.mem_ctrls.rdQLenPdf::4                       2                       # What read queue length does an incoming req see
system.mem_ctrls.rdQLenPdf::5                       2                       # What read queue length does an incoming req see
system.mem_ctrls.rdQLenPdf::6                       1                       # What read queue length does an incoming req see
system.mem_ctrls.rdQLenPdf::7                       1                       # What read queue length does an incoming req see
system.mem_ctrls.rdQLenPdf::8                       0                       # What read queue length does an incoming req see
system.mem_ctrls.rdQLenPdf::9                       0                       # What read queue length does an incoming req see
system.mem_ctrls.rdQLenPdf::10                      0                       # What read queue length does an incoming req see
system.mem_ctrls.rdQLenPdf::11                      0                       # What read queue length does an incoming req see
system.mem_ctrls.rdQLenPdf::12                      0                       # What read queue length does an incoming req see
system.mem_ctrls.rdQLenPdf::13                      0                       # What read queue length does an incoming req see
system.mem_ctrls.rdQLenPdf::14                      0                       # What read queue length does an incoming req see
system.mem_ctrls.rdQLenPdf::15                      0                       # What read queue length does an incoming req see
system.mem_ctrls.rdQLenPdf::16                      0                       # What read queue length does an incoming req see
system.mem_ctrls.rdQLenPdf::17                      0                       # What read queue length does an incoming req see
system.mem_ctrls.rdQLenPdf::18                      0                       # What read queue length does an incoming req see
system.mem_ctrls.rdQLenPdf::19                      0                       # What read queue length does an incoming req see
system.mem_ctrls.rdQLenPdf::20                      0                       # What read queue length does an incoming req see
system.mem_ctrls.rdQLenPdf::21                      0                       # What read queue length does an incoming req see
system.mem_ctrls.rdQLenPdf::22                      0                       # What read queue length does an incoming req see
system.mem_ctrls.rdQLenPdf::23                      0                       # What read queue length does an incoming req see
system.mem_ctrls.rdQLenPdf::24                      0                       # What read queue length does an incoming req see
system.mem_ctrls.rdQLenPdf::25                      0                       # What read queue length does an incoming req see
system.mem_ctrls.rdQLenPdf::26                      0                       # What read queue length does an incoming req see
system.mem_ctrls.rdQLenPdf::27                      0                       # What read queue length does an incoming req see
system.mem_ctrls.rdQLenPdf::28                      0                       # What read queue length does an incoming req see
system.mem_ctrls.rdQLenPdf::29                      0                       # What read queue length does an incoming req see
system.mem_ctrls.rdQLenPdf::30                      0                       # What read queue length does an incoming req see
system.mem_ctrls.rdQLenPdf::31                      0                       # What read queue length does an incoming req see
system.mem_ctrls.wrQLenPdf::0                       1                       # What write queue length does an incoming req see
system.mem_ctrls.wrQLenPdf::1                       1                       # What write queue length does an incoming req see
system.mem_ctrls.wrQLenPdf::2                       1                       # What write queue length does an incoming req see
system.mem_ctrls.wrQLenPdf::3                       1                       # What write queue length does an incoming req see
system.mem_ctrls.wrQLenPdf::4                       1                       # What write queue length does an incoming req see
system.mem_ctrls.wrQLenPdf::5                       1                       # What write queue length does an incoming req see
system.mem_ctrls.wrQLenPdf::6                       1                       # What write queue length does an incoming req see
system.mem_ctrls.wrQLenPdf::7                       1                       # What write queue length does an incoming req see
system.mem_ctrls.wrQLenPdf::8                       1                       # What write queue length does an incoming req see
system.mem_ctrls.wrQLenPdf::9                       1                       # What write queue length does an incoming req see
system.mem_ctrls.wrQLenPdf::10                      1                       # What write queue length does an incoming req see
system.mem_ctrls.wrQLenPdf::11                      1                       # What write queue length does an incoming req see
system.mem_ctrls.wrQLenPdf::12                      1                       # What write queue length does an incoming req see
system.mem_ctrls.wrQLenPdf::13                      1                       # What write queue length does an incoming req see
system.mem_ctrls.wrQLenPdf::14                      1                       # What write queue length does an incoming req see
system.mem_ctrls.wrQLenPdf::15                    181                       # What write queue length does an incoming req see
system.mem_ctrls.wrQLenPdf::16                    294                       # What write queue length does an incoming req see
system.mem_ctrls.wrQLenPdf::17                   1688                       # What write queue length does an incoming req see
system.mem_ctrls.wrQLenPdf::18                   5477                       # What write queue length does an incoming req see
system.mem_ctrls.wrQLenPdf::19                   5535                       # What write queue length does an incoming req see
system.mem_ctrls.wrQLenPdf::20                   5758                       # What write queue length does an incoming req see
system.mem_ctrls.wrQLenPdf::21                   5934                       # What write queue length does an incoming req see
system.mem_ctrls.wrQLenPdf::22                   5947                       # What write queue length does an incoming req see
system.mem_ctrls.wrQLenPdf::23                   5831                       # What write queue length does an incoming req see
system.mem_ctrls.wrQLenPdf::24                   5795                       # What write queue length does an incoming req see
system.mem_ctrls.wrQLenPdf::25                   5743                       # What write queue length does an incoming req see
system.mem_ctrls.wrQLenPdf::26                   5763                       # What write queue length does an incoming req see
system.mem_ctrls.wrQLenPdf::27                   5758                       # What write queue length does an incoming req see
system.mem_ctrls.wrQLenPdf::28                   5727                       # What write queue length does an incoming req see
system.mem_ctrls.wrQLenPdf::29                   5755                       # What write queue length does an incoming req see
system.mem_ctrls.wrQLenPdf::30                   5754                       # What write queue length does an incoming req see
system.mem_ctrls.wrQLenPdf::31                   5722                       # What write queue length does an incoming req see
system.mem_ctrls.wrQLenPdf::32                   5722                       # What write queue length does an incoming req see
system.mem_ctrls.wrQLenPdf::33                   4091                       # What write queue length does an incoming req see
system.mem_ctrls.wrQLenPdf::34                      3                       # What write queue length does an incoming req see
system.mem_ctrls.wrQLenPdf::35                      3                       # What write queue length does an incoming req see
system.mem_ctrls.wrQLenPdf::36                      0                       # What write queue length does an incoming req see
system.mem_ctrls.wrQLenPdf::37                      0                       # What write queue length does an incoming req see
system.mem_ctrls.wrQLenPdf::38                      0                       # What write queue length does an incoming req see
system.mem_ctrls.wrQLenPdf::39                      0                       # What write queue length does an incoming req see
system.mem_ctrls.wrQLenPdf::40                      0                       # What write queue length does an incoming req see
system.mem_ctrls.wrQLenPdf::41                      0                       # What write queue length does an incoming req see
system.mem_ctrls.wrQLenPdf::42                      0                       # What write queue length does an incoming req see
system.mem_ctrls.wrQLenPdf::43                      0                       # What write queue length does an incoming req see
system.mem_ctrls.wrQLenPdf::44                      0                       # What write queue length does an incoming req see
system.mem_ctrls.wrQLenPdf::45                      0                       # What write queue length does an incoming req see
system.mem_ctrls.wrQLenPdf::46                      0                       # What write queue length does an incoming req see
system.mem_ctrls.wrQLenPdf::47                      0                       # What write queue length does an incoming req see
system.mem_ctrls.wrQLenPdf::48                      0                       # What write queue length does an incoming req see
system.mem_ctrls.wrQLenPdf::49                      0                       # What write queue length does an incoming req see
system.mem_ctrls.wrQLenPdf::50                      0                       # What write queue length does an incoming req see
system.mem_ctrls.wrQLenPdf::51                      0                       # What write queue length does an incoming req see
system.mem_ctrls.wrQLenPdf::52                      0                       # What write queue length does an incoming req see
system.mem_ctrls.wrQLenPdf::53                      0                       # What write queue length does an incoming req see
system.mem_ctrls.wrQLenPdf::54                      0                       # What write queue length does an incoming req see
system.mem_ctrls.wrQLenPdf::55                      0                       # What write queue length does an incoming req see
system.mem_ctrls.wrQLenPdf::56                      0                       # What write queue length does an incoming req see
system.mem_ctrls.wrQLenPdf::57                      0                       # What write queue length does an incoming req see
system.mem_ctrls.wrQLenPdf::58                      0                       # What write queue length does an incoming req see
system.mem_ctrls.wrQLenPdf::59                      0                       # What write queue length does an incoming req see
system.mem_ctrls.wrQLenPdf::60                      0                       # What write queue length does an incoming req see
system.mem_ctrls.wrQLenPdf::61                      0                       # What write queue length does an incoming req see
system.mem_ctrls.wrQLenPdf::62                      0                       # What write queue length does an incoming req see
system.mem_ctrls.wrQLenPdf::63                      0                       # What write queue length does an incoming req see
system.mem_ctrls.bytesPerActivate::samples        20117                       # Bytes accessed per row activation
system.mem_ctrls.bytesPerActivate::mean    800.548790                       # Bytes accessed per row activation
system.mem_ctrls.bytesPerActivate::gmean   672.049566                       # Bytes accessed per row activation
system.mem_ctrls.bytesPerActivate::stdev   333.214912                       # Bytes accessed per row activation
system.mem_ctrls.bytesPerActivate::0-127          179      0.89%      0.89% # Bytes accessed per row activation
system.mem_ctrls.bytesPerActivate::128-255         2172     10.80%     11.69% # Bytes accessed per row activation
system.mem_ctrls.bytesPerActivate::256-383          951      4.73%     16.41% # Bytes accessed per row activation
system.mem_ctrls.bytesPerActivate::384-511          931      4.63%     21.04% # Bytes accessed per row activation
system.mem_ctrls.bytesPerActivate::512-639          913      4.54%     25.58% # Bytes accessed per row activation
system.mem_ctrls.bytesPerActivate::640-767          935      4.65%     30.23% # Bytes accessed per row activation
system.mem_ctrls.bytesPerActivate::768-895          708      3.52%     33.75% # Bytes accessed per row activation
system.mem_ctrls.bytesPerActivate::896-1023          681      3.39%     37.13% # Bytes accessed per row activation
system.mem_ctrls.bytesPerActivate::1024-1151        12647     62.87%    100.00% # Bytes accessed per row activation
system.mem_ctrls.bytesPerActivate::total        20117                       # Bytes accessed per row activation
system.mem_ctrls.rdPerTurnAround::samples         5722                       # Reads before turning the bus around for writes
system.mem_ctrls.rdPerTurnAround::mean      27.807060                       # Reads before turning the bus around for writes
system.mem_ctrls.rdPerTurnAround::gmean     21.979897                       # Reads before turning the bus around for writes
system.mem_ctrls.rdPerTurnAround::stdev     68.107993                       # Reads before turning the bus around for writes
system.mem_ctrls.rdPerTurnAround::0-255          5715     99.88%     99.88% # Reads before turning the bus around for writes
system.mem_ctrls.rdPerTurnAround::256-511            6      0.10%     99.98% # Reads before turning the bus around for writes
system.mem_ctrls.rdPerTurnAround::4608-4863            1      0.02%    100.00% # Reads before turning the bus around for writes
system.mem_ctrls.rdPerTurnAround::total          5722                       # Reads before turning the bus around for writes
system.mem_ctrls.wrPerTurnAround::samples         5722                       # Writes before turning the bus around for reads
system.mem_ctrls.wrPerTurnAround::mean      16.159560                       # Writes before turning the bus around for reads
system.mem_ctrls.wrPerTurnAround::gmean     16.146763                       # Writes before turning the bus around for reads
system.mem_ctrls.wrPerTurnAround::stdev      0.701251                       # Writes before turning the bus around for reads
system.mem_ctrls.wrPerTurnAround::16             5254     91.82%     91.82% # Writes before turning the bus around for reads
[...]
system.cpu.icache.ReadReq_avg_miss_latency::total 88848.290598                       # average ReadReq miss latency
system.cpu.icache.ReadReq_mshr_misses::.cpu.inst          468                       # number of ReadReq MSHR misses
system.cpu.icache.ReadReq_mshr_misses::total          468                       # number of ReadReq MSHR misses
system.cpu.icache.ReadReq_mshr_miss_latency::.cpu.inst     40645000                       # number of ReadReq MSHR miss cycles
system.cpu.icache.ReadReq_mshr_miss_latency::total     40645000                       # number of ReadReq MSHR miss cycles
system.cpu.icache.ReadReq_mshr_miss_rate::.cpu.inst     0.000450                       # mshr miss rate for ReadReq accesses
system.cpu.icache.ReadReq_mshr_miss_rate::total     0.000450                       # mshr miss rate for ReadReq accesses
system.cpu.icache.ReadReq_avg_mshr_miss_latency::.cpu.inst 86848.290598                       # average ReadReq mshr miss latency
system.cpu.icache.ReadReq_avg_mshr_miss_latency::total 86848.290598                       # average ReadReq mshr miss latency
system.cpu.icache.tags.pwrStateResidencyTicks::UNDEFINED  23048895000                       # Cumulative time (in ticks) in various power states
system.cpu.icache.tags.tagsinuse           193.144789                       # Cycle average of tags in use
system.cpu.icache.tags.total_refs             1039149                       # Total number of references to valid blocks.
system.cpu.icache.tags.sampled_refs               468                       # Sample count of references to valid blocks.
system.cpu.icache.tags.avg_refs           2220.403846                       # Average number of references to valid blocks.
system.cpu.icache.tags.warmup_cycle            113000                       # Cycle when the warmup percentage was hit.
system.cpu.icache.tags.occ_blocks::.cpu.inst   193.144789                       # Average occupied blocks per requestor
system.cpu.icache.tags.occ_percent::.cpu.inst     0.754472                       # Average percentage of cache occupancy
system.cpu.icache.tags.occ_percent::total     0.754472                       # Average percentage of cache occupancy
system.cpu.icache.tags.occ_task_id_blocks::1024          202                       # Occupied blocks per task id
system.cpu.icache.tags.age_task_id_blocks_1024::4          202                       # Occupied blocks per task id
system.cpu.icache.tags.occ_task_id_percent::1024     0.789062                       # Percentage of cache occupancy per task id
system.cpu.icache.tags.tag_accesses           2078766                       # Number of tag accesses
system.cpu.icache.tags.data_accesses          2078766                       # Number of data accesses
system.cpu.dtb.walker.pwrStateResidencyTicks::UNDEFINED  23048895000                       # Cumulative time (in ticks) in various power states
system.cpu.dtb.stage2_mmu.stage2_tlb.walker.pwrStateResidencyTicks::UNDEFINED  23048895000                       # Cumulative time (in ticks) in various power states
system.cpu.dcache.pwrStateResidencyTicks::UNDEFINED  23048895000                       # Cumulative time (in ticks) in various power states
system.cpu.dcache.demand_hits::.cpu.data      7042257                       # number of demand (read+write) hits
system.cpu.dcache.demand_hits::total          7042257                       # number of demand (read+write) hits
system.cpu.dcache.overall_hits::.cpu.data      7042381                       # number of overall hits
system.cpu.dcache.overall_hits::total         7042381                       # number of overall hits
system.cpu.dcache.demand_misses::.cpu.data        99243                       # number of demand (read+write) misses
system.cpu.dcache.demand_misses::total          99243                       # number of demand (read+write) misses
system.cpu.dcache.overall_misses::.cpu.data       100732                       # number of overall misses
system.cpu.dcache.overall_misses::total        100732                       # number of overall misses
system.cpu.dcache.demand_miss_latency::.cpu.data  10934848000                       # number of demand (read+write) miss cycles
system.cpu.dcache.demand_miss_latency::total  10934848000                       # number of demand (read+write) miss cycles
system.cpu.dcache.overall_miss_latency::.cpu.data  10934848000                       # number of overall miss cycles
system.cpu.dcache.overall_miss_latency::total  10934848000                       # number of overall miss cycles
system.cpu.dcache.demand_accesses::.cpu.data      7141500                       # number of demand (read+write) accesses
system.cpu.dcache.demand_accesses::total      7141500                       # number of demand (read+write) accesses
system.cpu.dcache.overall_accesses::.cpu.data      7143113                       # number of overall (read+write) accesses
system.cpu.dcache.overall_accesses::total      7143113                       # number of overall (read+write) accesses
system.cpu.dcache.demand_miss_rate::.cpu.data     0.013897                       # miss rate for demand accesses
system.cpu.dcache.demand_miss_rate::total     0.013897                       # miss rate for demand accesses
system.cpu.dcache.overall_miss_rate::.cpu.data     0.014102                       # miss rate for overall accesses
system.cpu.dcache.overall_miss_rate::total     0.014102                       # miss rate for overall accesses
system.cpu.dcache.demand_avg_miss_latency::.cpu.data 110182.561994                       # average overall miss latency
system.cpu.dcache.demand_avg_miss_latency::total 110182.561994                       # average overall miss latency
system.cpu.dcache.overall_avg_miss_latency::.cpu.data 108553.865703                       # average overall miss latency
system.cpu.dcache.overall_avg_miss_latency::total 108553.865703                       # average overall miss latency
system.cpu.dcache.blocked_cycles::no_mshrs            0                       # number of cycles access was blocked
system.cpu.dcache.blocked_cycles::no_targets            0                       # number of cycles access was blocked
system.cpu.dcache.blocked::no_mshrs                 0                       # number of cycles access was blocked
system.cpu.dcache.blocked::no_targets               0                       # number of cycles access was blocked
system.cpu.dcache.avg_blocked_cycles::no_mshrs          nan                       # average number of cycles each access was blocked
system.cpu.dcache.avg_blocked_cycles::no_targets          nan                       # average number of cycles each access was blocked
system.cpu.dcache.writebacks::.writebacks        50622                       # number of writebacks
system.cpu.dcache.writebacks::total             50622                       # number of writebacks
system.cpu.dcache.demand_mshr_hits::.cpu.data        19486                       # number of demand (read+write) MSHR hits
system.cpu.dcache.demand_mshr_hits::total        19486                       # number of demand (read+write) MSHR hits
system.cpu.dcache.overall_mshr_hits::.cpu.data        19486                       # number of overall MSHR hits
system.cpu.dcache.overall_mshr_hits::total        19486                       # number of overall MSHR hits
system.cpu.dcache.demand_mshr_misses::.cpu.data        79757                       # number of demand (read+write) MSHR misses
system.cpu.dcache.demand_mshr_misses::total        79757                       # number of demand (read+write) MSHR misses
system.cpu.dcache.overall_mshr_misses::.cpu.data        80509                       # number of overall MSHR misses
system.cpu.dcache.overall_mshr_misses::total        80509                       # number of overall MSHR misses
system.cpu.dcache.demand_mshr_miss_latency::.cpu.data   8766946000                       # number of demand (read+write) MSHR miss cycles
system.cpu.dcache.demand_mshr_miss_latency::total   8766946000                       # number of demand (read+write) MSHR miss cycles
system.cpu.dcache.overall_mshr_miss_latency::.cpu.data   8845659000                       # number of overall MSHR miss cycles
system.cpu.dcache.overall_mshr_miss_latency::total   8845659000                       # number of overall MSHR miss cycles
system.cpu.dcache.demand_mshr_miss_rate::.cpu.data     0.011168                       # mshr miss rate for demand accesses
system.cpu.dcache.demand_mshr_miss_rate::total     0.011168                       # mshr miss rate for demand accesses
system.cpu.dcache.overall_mshr_miss_rate::.cpu.data     0.011271                       # mshr miss rate for overall accesses
system.cpu.dcache.overall_mshr_miss_rate::total     0.011271                       # mshr miss rate for overall accesses
system.cpu.dcache.demand_avg_mshr_miss_latency::.cpu.data 109920.709154                       # average overall mshr miss latency
system.cpu.dcache.demand_avg_mshr_miss_latency::total 109920.709154                       # average overall mshr miss latency
system.cpu.dcache.overall_avg_mshr_miss_latency::.cpu.data 109871.678943                       # average overall mshr miss latency
system.cpu.dcache.overall_avg_mshr_miss_latency::total 109871.678943                       # average overall mshr miss latency
system.cpu.dcache.replacements                  79997                       # number of replacements
system.cpu.dcache.ReadReq_hits::.cpu.data      5656289                       # number of ReadReq hits
system.cpu.dcache.ReadReq_hits::total         5656289                       # number of ReadReq hits
system.cpu.dcache.ReadReq_misses::.cpu.data        29723                       # number of ReadReq misses
system.cpu.dcache.ReadReq_misses::total         29723                       # number of ReadReq misses
system.cpu.dcache.ReadReq_miss_latency::.cpu.data   3142686000                       # number of ReadReq miss cycles
system.cpu.dcache.ReadReq_miss_latency::total   3142686000                       # number of ReadReq miss cycles
system.cpu.dcache.ReadReq_accesses::.cpu.data      5686012                       # number of ReadReq accesses(hits+misses)
system.cpu.dcache.ReadReq_accesses::total      5686012                       # number of ReadReq accesses(hits+misses)
system.cpu.dcache.ReadReq_miss_rate::.cpu.data     0.005227                       # miss rate for ReadReq accesses
system.cpu.dcache.ReadReq_miss_rate::total     0.005227                       # miss rate for ReadReq accesses
system.cpu.dcache.ReadReq_avg_miss_latency::.cpu.data 105732.463076                       # average ReadReq miss latency
system.cpu.dcache.ReadReq_avg_miss_latency::total 105732.463076                       # average ReadReq miss latency
system.cpu.dcache.ReadReq_mshr_hits::.cpu.data          470                       # number of ReadReq MSHR hits
system.cpu.dcache.ReadReq_mshr_hits::total          470                       # number of ReadReq MSHR hits
system.cpu.dcache.ReadReq_mshr_misses::.cpu.data        29253                       # number of ReadReq MSHR misses
system.cpu.dcache.ReadReq_mshr_misses::total        29253                       # number of ReadReq MSHR misses
system.cpu.dcache.ReadReq_mshr_miss_latency::.cpu.data   3059538000                       # number of ReadReq MSHR miss cycles
system.cpu.dcache.ReadReq_mshr_miss_latency::total   3059538000                       # number of ReadReq MSHR miss cycles
system.cpu.dcache.ReadReq_mshr_miss_rate::.cpu.data     0.005145                       # mshr miss rate for ReadReq accesses
system.cpu.dcache.ReadReq_mshr_miss_rate::total     0.005145                       # mshr miss rate for ReadReq accesses
system.cpu.dcache.ReadReq_avg_mshr_miss_latency::.cpu.data 104588.862681                       # average ReadReq mshr miss latency
system.cpu.dcache.ReadReq_avg_mshr_miss_latency::total 104588.862681                       # average ReadReq mshr miss latency
system.cpu.dcache.WriteReq_hits::.cpu.data      1385968                       # number of WriteReq hits
system.cpu.dcache.WriteReq_hits::total        1385968                       # number of WriteReq hits
system.cpu.dcache.WriteReq_misses::.cpu.data        69520                       # number of WriteReq misses
system.cpu.dcache.WriteReq_misses::total        69520                       # number of WriteReq misses
system.cpu.dcache.WriteReq_miss_latency::.cpu.data   7792162000                       # number of WriteReq miss cycles
system.cpu.dcache.WriteReq_miss_latency::total   7792162000                       # number of WriteReq miss cycles
system.cpu.dcache.WriteReq_accesses::.cpu.data      1455488                       # number of WriteReq accesses(hits+misses)
system.cpu.dcache.WriteReq_accesses::total      1455488                       # number of WriteReq accesses(hits+misses)
system.cpu.dcache.WriteReq_miss_rate::.cpu.data     0.047764                       # miss rate for WriteReq accesses
system.cpu.dcache.WriteReq_miss_rate::total     0.047764                       # miss rate for WriteReq accesses
system.cpu.dcache.WriteReq_avg_miss_latency::.cpu.data 112085.184120                       # average WriteReq miss latency
system.cpu.dcache.WriteReq_avg_miss_latency::total 112085.184120                       # average WriteReq miss latency
system.cpu.dcache.WriteReq_mshr_hits::.cpu.data        19016                       # number of WriteReq MSHR hits
system.cpu.dcache.WriteReq_mshr_hits::total        19016                       # number of WriteReq MSHR hits
system.cpu.dcache.WriteReq_mshr_misses::.cpu.data        50504                       # number of WriteReq MSHR misses
system.cpu.dcache.WriteReq_mshr_misses::total        50504                       # number of WriteReq MSHR misses
system.cpu.dcache.WriteReq_mshr_miss_latency::.cpu.data   5707408000                       # number of WriteReq MSHR miss cycles
system.cpu.dcache.WriteReq_mshr_miss_latency::total   5707408000                       # number of WriteReq MSHR miss cycles
system.cpu.dcache.WriteReq_mshr_miss_rate::.cpu.data     0.034699                       # mshr miss rate for WriteReq accesses
system.cpu.dcache.WriteReq_mshr_miss_rate::total     0.034699                       # mshr miss rate for WriteReq accesses
system.cpu.dcache.WriteReq_avg_mshr_miss_latency::.cpu.data 113009.028988                       # average WriteReq mshr miss latency
system.cpu.dcache.WriteReq_avg_mshr_miss_latency::total 113009.028988                       # average WriteReq mshr miss latency
system.cpu.dcache.SoftPFReq_hits::.cpu.data          124                       # number of SoftPFReq hits
system.cpu.dcache.SoftPFReq_hits::total           124                       # number of SoftPFReq hits
system.cpu.dcache.SoftPFReq_misses::.cpu.data         1489                       # number of SoftPFReq misses
system.cpu.dcache.SoftPFReq_misses::total         1489                       # number of SoftPFReq misses
system.cpu.dcache.SoftPFReq_accesses::.cpu.data         1613                       # number of SoftPFReq accesses(hits+misses)
system.cpu.dcache.SoftPFReq_accesses::total         1613                       # number of SoftPFReq accesses(hits+misses)
system.cpu.dcache.SoftPFReq_miss_rate::.cpu.data     0.923125                       # miss rate for SoftPFReq accesses
system.cpu.dcache.SoftPFReq_miss_rate::total     0.923125                       # miss rate for SoftPFReq accesses
system.cpu.dcache.SoftPFReq_mshr_misses::.cpu.data          752                       # number of SoftPFReq MSHR misses
system.cpu.dcache.SoftPFReq_mshr_misses::total          752                       # number of SoftPFReq MSHR misses
system.cpu.dcache.SoftPFReq_mshr_miss_latency::.cpu.data     78713000                       # number of SoftPFReq MSHR miss cycles
system.cpu.dcache.SoftPFReq_mshr_miss_latency::total     78713000                       # number of SoftPFReq MSHR miss cycles
system.cpu.dcache.SoftPFReq_mshr_miss_rate::.cpu.data     0.466212                       # mshr miss rate for SoftPFReq accesses
system.cpu.dcache.SoftPFReq_mshr_miss_rate::total     0.466212                       # mshr miss rate for SoftPFReq accesses
system.cpu.dcache.SoftPFReq_avg_mshr_miss_latency::.cpu.data 104671.542553                       # average SoftPFReq mshr miss latency
system.cpu.dcache.SoftPFReq_avg_mshr_miss_latency::total 104671.542553                       # average SoftPFReq mshr miss latency
system.cpu.dcache.LoadLockedReq_hits::.cpu.data           38                       # number of LoadLockedReq hits
system.cpu.dcache.LoadLockedReq_hits::total           38                       # number of LoadLockedReq hits
system.cpu.dcache.LoadLockedReq_accesses::.cpu.data           38                       # number of LoadLockedReq accesses(hits+misses)
system.cpu.dcache.LoadLockedReq_accesses::total           38                       # number of LoadLockedReq accesses(hits+misses)
system.cpu.dcache.StoreCondReq_hits::.cpu.data           38                       # number of StoreCondReq hits
system.cpu.dcache.StoreCondReq_hits::total           38                       # number of StoreCondReq hits
system.cpu.dcache.StoreCondReq_accesses::.cpu.data           38                       # number of StoreCondReq accesses(hits+misses)
system.cpu.dcache.StoreCondReq_accesses::total           38                       # number of StoreCondReq accesses(hits+misses)
system.cpu.dcache.tags.pwrStateResidencyTicks::UNDEFINED  23048895000                       # Cumulative time (in ticks) in various power states
system.cpu.dcache.tags.tagsinuse           476.207887                       # Cycle average of tags in use
system.cpu.dcache.tags.total_refs             7122966                       # Total number of references to valid blocks.
system.cpu.dcache.tags.sampled_refs             80509                       # Sample count of references to valid blocks.
system.cpu.dcache.tags.avg_refs             88.474158                       # Average number of references to valid blocks.
system.cpu.dcache.tags.warmup_cycle            233000                       # Cycle when the warmup percentage was hit.
system.cpu.dcache.tags.occ_blocks::.cpu.data   476.207887                       # Average occupied blocks per requestor
system.cpu.dcache.tags.occ_percent::.cpu.data     0.930094                       # Average percentage of cache occupancy
system.cpu.dcache.tags.occ_percent::total     0.930094                       # Average percentage of cache occupancy
system.cpu.dcache.tags.occ_task_id_blocks::1024          512                       # Occupied blocks per task id
system.cpu.dcache.tags.age_task_id_blocks_1024::0            1                       # Occupied blocks per task id
system.cpu.dcache.tags.age_task_id_blocks_1024::1            4                       # Occupied blocks per task id
system.cpu.dcache.tags.age_task_id_blocks_1024::2           86                       # Occupied blocks per task id
system.cpu.dcache.tags.age_task_id_blocks_1024::3          356                       # Occupied blocks per task id
system.cpu.dcache.tags.age_task_id_blocks_1024::4           65                       # Occupied blocks per task id
system.cpu.dcache.tags.occ_task_id_percent::1024            1                       # Percentage of cache occupancy per task id
system.cpu.dcache.tags.tag_accesses          14366887                       # Number of tag accesses
system.cpu.dcache.tags.data_accesses         14366887                       # Number of data accesses
system.cpu.itb.walker.pwrStateResidencyTicks::UNDEFINED  23048895000                       # Cumulative time (in ticks) in various power states
system.cpu.itb.stage2_mmu.stage2_tlb.walker.pwrStateResidencyTicks::UNDEFINED  23048895000                       # Cumulative time (in ticks) in various power states

---------- End Simulation Statistics   ----------
