
---------- Begin Simulation Statistics ----------
final_tick                                30052375000                       # Number of ticks from beginning of simulation (restored from checkpoints and never reset)
host_inst_rate                                 220830                       # Simulator instruction rate (inst/s)
host_mem_usage                                 700340                       # Number of bytes of host memory used
host_op_rate                                   221454                       # Simulator op (including micro ops) rate (op/s)
host_seconds                                    45.28                       # Real time elapsed on the host
host_tick_rate                              663639186                       # Simulator tick rate (ticks/s)
sim_freq                                 1000000000000                       # Frequency of simulated ticks
sim_insts                                    10000000                       # Number of instructions simulated
sim_ops                                      10028311                       # Number of ops (including micro ops) simulated
sim_seconds                                  0.030052                       # Number of seconds simulated
sim_ticks                                 30052375000                       # Number of ticks simulated
system.cpu.branchPred.BTBCorrect                    0                       # Number of correct BTB predictions (this stat may not work properly.
system.cpu.branchPred.BTBHitPct             98.887323                       # BTB Hit Percentage
system.cpu.branchPred.BTBHits                  300303                       # Number of BTB hits
system.cpu.branchPred.BTBLookups               303682                       # Number of BTB lookups
system.cpu.branchPred.RASInCorrect                  5                       # Number of incorrect RAS predictions.
system.cpu.branchPred.condIncorrect              7162                       # Number of conditional branches incorrect
system.cpu.branchPred.condPredicted            603735                       # Number of conditional branches predicted
system.cpu.branchPred.indirectHits                128                       # Number of indirect target hits.
system.cpu.branchPred.indirectLookups             380                       # Number of indirect predictor lookups.
system.cpu.branchPred.indirectMisses              252                       # Number of indirect misses.
system.cpu.branchPred.lookups                  716534                       # Number of BP lookups
system.cpu.branchPred.usedRAS                    6932                       # Number of times the RAS was used to get a target.
system.cpu.branchPredindirectMispredicted          171                       # Number of mispredicted indirect branches.
system.cpu.committedInsts                    10000000                       # Number of instructions committed
system.cpu.committedOps                      10028311                       # Number of ops (including micro ops) committed
system.cpu.cpi                               3.005237                       # CPI: cycles per instruction
system.cpu.discardedOps                         15321                       # Number of ops (including micro ops) which were discarded before commit
system.cpu.dtb.accesses                             0                       # DTB accesses
system.cpu.dtb.align_faults                         0                       # Number of TLB faults due to alignment restrictions
system.cpu.dtb.domain_faults                        0                       # Number of TLB faults due to domain restrictions
system.cpu.dtb.flush_entries                        0                       # Number of entries that have been flushed from TLB
system.cpu.dtb.flush_tlb                            0                       # Number of times complete TLB was flushed
system.cpu.dtb.flush_tlb_asid                       0                       # Number of times TLB was flushed by ASID
system.cpu.dtb.flush_tlb_mva                        0                       # Number of times TLB was flushed by MVA
system.cpu.dtb.flush_tlb_mva_asid                   0                       # Number of times TLB was flushed by MVA & ASID
system.cpu.dtb.hits                                 0                       # DTB hits
system.cpu.dtb.inst_accesses                        0                       # ITB inst accesses
system.cpu.dtb.inst_hits                            0                       # ITB inst hits
system.cpu.dtb.inst_misses                          0                       # ITB inst misses
system.cpu.dtb.misses                               0                       # DTB misses
system.cpu.dtb.perms_faults                         0                       # Number of TLB faults due to permissions restrictions
system.cpu.dtb.prefetch_faults                      0                       # Number of TLB faults due to prefetch
system.cpu.dtb.read_accesses                        0                       # DTB read accesses
system.cpu.dtb.read_hits                            0                       # DTB read hits
system.cpu.dtb.read_misses                          0                       # DTB read misses
system.cpu.dtb.stage2_mmu.stage2_tlb.accesses            0                       # DTB accesses
system.cpu.dtb.stage2_mmu.stage2_tlb.align_faults            0                       # Number of TLB faults due to alignment restrictions
system.cpu.dtb.stage2_mmu.stage2_tlb.domain_faults            0                       # Number of TLB faults due to domain restrictions
system.cpu.dtb.stage2_mmu.stage2_tlb.flush_entries            0                       # Number of entries that have been flushed from TLB
system.cpu.dtb.stage2_mmu.stage2_tlb.flush_tlb            0                       # Number of times complete TLB was flushed
system.cpu.dtb.stage2_mmu.stage2_tlb.flush_tlb_asid            0                       # Number of times TLB was flushed by ASID
system.cpu.dtb.stage2_mmu.stage2_tlb.flush_tlb_mva            0                       # Number of times TLB was flushed by MVA
system.cpu.dtb.stage2_mmu.stage2_tlb.flush_tlb_mva_asid            0                       # Number of times TLB was flushed by MVA & ASID
system.cpu.dtb.stage2_mmu.stage2_tlb.hits            0                       # DTB hits
system.cpu.dtb.stage2_mmu.stage2_tlb.inst_accesses            0                       # ITB inst accesses
system.cpu.dtb.stage2_mmu.stage2_tlb.inst_hits            0                       # ITB inst hits
system.cpu.dtb.stage2_mmu.stage2_tlb.inst_misses            0                       # ITB inst misses
system.cpu.dtb.stage2_mmu.stage2_tlb.misses            0                       # DTB misses
system.cpu.dtb.stage2_mmu.stage2_tlb.perms_faults            0                       # Number of TLB faults due to permissions restrictions
system.cpu.dtb.stage2_mmu.stage2_tlb.prefetch_faults            0                       # Number of TLB faults due to prefetch
system.cpu.dtb.stage2_mmu.stage2_tlb.read_accesses            0                       # DTB read accesses
system.cpu.dtb.stage2_mmu.stage2_tlb.read_hits            0                       # DTB read hits
system.cpu.dtb.stage2_mmu.stage2_tlb.read_misses            0                       # DTB read misses
system.cpu.dtb.stage2_mmu.stage2_tlb.walker.walkRequestOrigin_Requested::Data            0                       # Table walker requests started/completed, data/inst
system.cpu.dtb.stage2_mmu.stage2_tlb.walker.walkRequestOrigin_Requested::Inst            0                       # Table walker requests started/completed, data/inst
system.cpu.dtb.stage2_mmu.stage2_tlb.walker.walkRequestOrigin_Requested::total            0                       # Table walker requests started/completed, data/inst
system.cpu.dtb.stage2_mmu.stage2_tlb.walker.walkRequestOrigin_Completed::Data            0                       # Table walker requests started/completed, data/inst
system.cpu.dtb.stage2_mmu.stage2_tlb.walker.walkRequestOrigin_Completed::Inst            0                       # Table walker requests started/completed, data/inst
system.cpu.dtb.stage2_mmu.stage2_tlb.walker.walkRequestOrigin_Completed::total            0                       # Table walker requests started/completed, data/inst
system.cpu.dtb.stage2_mmu.stage2_tlb.walker.walkRequestOrigin::total            0                       # Table walker requests started/completed, data/inst
system.cpu.dtb.stage2_mmu.stage2_tlb.walker.walks            0                       # Table walker walks requested
system.cpu.dtb.stage2_mmu.stage2_tlb.write_accesses            0                       # DTB write accesses
system.cpu.dtb.stage2_mmu.stage2_tlb.write_hits            0                       # DTB write hits
system.cpu.dtb.stage2_mmu.stage2_tlb.write_misses            0                       # DTB write misses
system.cpu.dtb.walker.walkRequestOrigin_Requested::Data            0                       # Table walker requests started/completed, data/inst
system.cpu.dtb.walker.walkRequestOrigin_Requested::Inst            0                       # Table walker requests started/completed, data/inst
system.cpu.dtb.walker.walkRequestOrigin_Requested::total            0                       # Table walker requests started/completed, data/inst
system.cpu.dtb.walker.walkRequestOrigin_Completed::Data            0                       # Table walker requests started/completed, data/inst
system.cpu.dtb.walker.walkRequestOrigin_Completed::Inst            0                       # Table walker requests started/completed, data/inst
system.cpu.dtb.walker.walkRequestOrigin_Completed::total            0                       # Table walker requests started/completed, data/inst
system.cpu.dtb.walker.walkRequestOrigin::total            0                       # Table walker requests started/completed, data/inst
system.cpu.dtb.walker.walks                         0                       # Table walker walks requested
system.cpu.dtb.write_accesses                       0                       # DTB write accesses
system.cpu.dtb.write_hits                           0                       # DTB write hits
system.cpu.dtb.write_misses                         0                       # DTB write misses
system.cpu.fetch2.amo_instructions                  0                       # Number of memory atomic instructions successfully decoded
system.cpu.fetch2.fp_instructions                   0                       # Number of floating point instructions successfully decoded
system.cpu.fetch2.int_instructions            2168624                       # Number of integer instructions successfully decoded
system.cpu.fetch2.load_instructions           5800692                       # Number of memory load instructions successfully decoded
system.cpu.fetch2.store_instructions          1454230                       # Number of memory store instructions successfully decoded
system.cpu.fetch2.vec_instructions                  0                       # Number of SIMD instructions successfully decoded
system.cpu.idleCycles                        15342201                       # Total number of cycles that the object has spent stopped
system.cpu.ipc                               0.332752                       # IPC: instructions per cycle
system.cpu.itb.accesses                             0                       # DTB accesses
system.cpu.itb.align_faults                         0                       # Number of TLB faults due to alignment restrictions
system.cpu.itb.domain_faults                        0                       # Number of TLB faults due to domain restrictions
system.cpu.itb.flush_entries                        0                       # Number of entries that have been flushed from TLB
system.cpu.itb.flush_tlb                            0                       # Number of times complete TLB was flushed
system.cpu.itb.flush_tlb_asid                       0                       # Number of times TLB was flushed by ASID
system.cpu.itb.flush_tlb_mva                        0                       # Number of times TLB was flushed by MVA
system.cpu.itb.flush_tlb_mva_asid                   0                       # Number of times TLB was flushed by MVA & ASID
system.cpu.itb.hits                                 0                       # DTB hits
system.cpu.itb.inst_accesses                        0                       # ITB inst accesses
system.cpu.itb.inst_hits                            0                       # ITB inst hits
system.cpu.itb.inst_misses                          0                       # ITB inst misses
system.cpu.itb.misses                               0                       # DTB misses
system.cpu.itb.perms_faults                         0                       # Number of TLB faults due to permissions restrictions
system.cpu.itb.prefetch_faults                      0                       # Number of TLB faults due to prefetch
system.cpu.itb.read_accesses                        0                       # DTB read accesses
system.cpu.itb.read_hits                            0                       # DTB read hits
system.cpu.itb.read_misses                          0                       # DTB read misses
system.cpu.itb.stage2_mmu.stage2_tlb.accesses            0                       # DTB accesses
system.cpu.itb.stage2_mmu.stage2_tlb.align_faults            0                       # Number of TLB faults due to alignment restrictions
system.cpu.itb.stage2_mmu.stage2_tlb.domain_faults            0                       # Number of TLB faults due to domain restrictions
system.cpu.itb.stage2_mmu.stage2_tlb.flush_entries            0                       # Number of entries that have been flushed from TLB
system.cpu.itb.stage2_mmu.stage2_tlb.flush_tlb            0                       # Number of times complete TLB was flushed
system.cpu.itb.stage2_mmu.stage2_tlb.flush_tlb_asid            0                       # Number of times TLB was flushed by ASID
system.cpu.itb.stage2_mmu.stage2_tlb.flush_tlb_mva            0                       # Number of times TLB was flushed by MVA
system.cpu.itb.stage2_mmu.stage2_tlb.flush_tlb_mva_asid            0                       # Number of times TLB was flushed by MVA & ASID
system.cpu.itb.stage2_mmu.stage2_tlb.hits            0                       # DTB hits
system.cpu.itb.stage2_mmu.stage2_tlb.inst_accesses            0                       # ITB inst accesses
system.cpu.itb.stage2_mmu.stage2_tlb.inst_hits            0                       # ITB inst hits
system.cpu.itb.stage2_mmu.stage2_tlb.inst_misses            0                       # ITB inst misses
system.cpu.itb.stage2_mmu.stage2_tlb.misses            0                       # DTB misses
system.cpu.itb.stage2_mmu.stage2_tlb.perms_faults            0                       # Number of TLB faults due to permissions restrictions
system.cpu.itb.stage2_mmu.stage2_tlb.prefetch_faults            0                       # Number of TLB faults due to prefetch
system.cpu.itb.stage2_mmu.stage2_tlb.read_accesses            0                       # DTB read accesses
system.cpu.itb.stage2_mmu.stage2_tlb.read_hits            0                       # DTB read hits
system.cpu.itb.stage2_mmu.stage2_tlb.read_misses            0                       # DTB read misses
system.cpu.itb.stage2_mmu.stage2_tlb.walker.walkRequestOrigin_Requested::Data            0                       # Table walker requests started/completed, data/inst
system.cpu.itb.stage2_mmu.stage2_tlb.walker.walkRequestOrigin_Requested::Inst            0                       # Table walker requests started/completed, data/inst
system.cpu.itb.stage2_mmu.stage2_tlb.walker.walkRequestOrigin_Requested::total            0                       # Table walker requests started/completed, data/inst
system.cpu.itb.stage2_mmu.stage2_tlb.walker.walkRequestOrigin_Completed::Data            0                       # Table walker requests started/completed, data/inst
system.cpu.itb.stage2_mmu.stage2_tlb.walker.walkRequestOrigin_Completed::Inst            0                       # Table walker requests started/completed, data/inst
system.cpu.itb.stage2_mmu.stage2_tlb.walker.walkRequestOrigin_Completed::total            0                       # Table walker requests started/completed, data/inst
system.cpu.itb.stage2_mmu.stage2_tlb.walker.walkRequestOrigin::total            0                       # Table walker requests started/completed, data/inst
system.cpu.itb.stage2_mmu.stage2_tlb.walker.walks            0                       # Table walker walks requested
system.cpu.itb.stage2_mmu.stage2_tlb.write_accesses            0                       # DTB write accesses
system.cpu.itb.stage2_mmu.stage2_tlb.write_hits            0                       # DTB write hits
system.cpu.itb.stage2_mmu.stage2_tlb.write_misses            0                       # DTB write misses
system.cpu.itb.walker.walkRequestOrigin_Requested::Data            0                       # Table walker requests started/completed, data/inst
system.cpu.itb.walker.walkRequestOrigin_Requested::Inst            0                       # Table walker requests started/completed, data/inst
system.cpu.itb.walker.walkRequestOrigin_Requested::total            0                       # Table walker requests started/completed, data/inst
system.cpu.itb.walker.walkRequestOrigin_Completed::Data            0                       # Table walker requests started/completed, data/inst
system.cpu.itb.walker.walkRequestOrigin_Completed::Inst            0                       # Table walker requests started/completed, data/inst
system.cpu.itb.walker.walkRequestOrigin_Completed::total            0                       # Table walker requests started/completed, data/inst
system.cpu.itb.walker.walkRequestOrigin::total            0                       # Table walker requests started/completed, data/inst
system.cpu.itb.walker.walks                         0                       # Table walker walks requested
system.cpu.itb.write_accesses                       0                       # DTB write accesses
system.cpu.itb.write_hits                           0                       # DTB write hits
system.cpu.itb.write_misses                         0                       # DTB write misses
system.cpu.numCycles                         30052375                       # number of cpu cycles simulated
system.cpu.numFetchSuspends                         0                       # Number of times Execute suspended instruction fetching
system.cpu.numWorkItemsCompleted                    0                       # number of work items this cpu completed
system.cpu.numWorkItemsStarted                      0                       # number of work items this cpu started
system.cpu.op_class_0::No_OpClass                   0      0.00%      0.00% # Class of committed instruction
system.cpu.op_class_0::IntAlu                 2830172     28.22%     28.22% # Class of committed instruction
system.cpu.op_class_0::IntMult                  20549      0.20%     28.43% # Class of committed instruction
system.cpu.op_class_0::IntDiv                       0      0.00%     28.43% # Class of committed instruction
system.cpu.op_class_0::FloatAdd                     0      0.00%     28.43% # Class of committed instruction
system.cpu.op_class_0::FloatCmp                     0      0.00%     28.43% # Class of committed instruction
system.cpu.op_class_0::FloatCvt                     0      0.00%     28.43% # Class of committed instruction
system.cpu.op_class_0::FloatMult                    0      0.00%     28.43% # Class of committed instruction
system.cpu.op_class_0::FloatMultAcc                 0      0.00%     28.43% # Class of committed instruction
system.cpu.op_class_0::FloatDiv                     0      0.00%     28.43% # Class of committed instruction
system.cpu.op_class_0::FloatMisc                    0      0.00%     28.43% # Class of committed instruction
system.cpu.op_class_0::FloatSqrt                    0      0.00%     28.43% # Class of committed instruction
system.cpu.op_class_0::SimdAdd                      0      0.00%     28.43% # Class of committed instruction
system.cpu.op_class_0::SimdAddAcc                   0      0.00%     28.43% # Class of committed instruction
system.cpu.op_class_0::SimdAlu                      0      0.00%     28.43% # Class of committed instruction
system.cpu.op_class_0::SimdCmp                      0      0.00%     28.43% # Class of committed instruction
system.cpu.op_class_0::SimdCvt                      0      0.00%     28.43% # Class of committed instruction
system.cpu.op_class_0::SimdMisc                     0      0.00%     28.43% # Class of committed instruction
system.cpu.op_class_0::SimdMult                     0      0.00%     28.43% # Class of committed instruction
system.cpu.op_class_0::SimdMultAcc                  0      0.00%     28.43% # Class of committed instruction
system.cpu.op_class_0::SimdShift                    0      0.00%     28.43% # Class of committed instruction
system.cpu.op_class_0::SimdShiftAcc                 0      0.00%     28.43% # Class of committed instruction
system.cpu.op_class_0::SimdDiv                      0      0.00%     28.43% # Class of committed instruction
system.cpu.op_class_0::SimdSqrt                     0      0.00%     28.43% # Class of committed instruction
system.cpu.op_class_0::SimdFloatAdd                 0      0.00%     28.43% # Class of committed instruction
system.cpu.op_class_0::SimdFloatAlu                 0      0.00%     28.43% # Class of committed instruction
system.cpu.op_class_0::SimdFloatCmp                 0      0.00%     28.43% # Class of committed instruction
system.cpu.op_class_0::SimdFloatCvt                 0      0.00%     28.43% # Class of committed instruction
system.cpu.op_class_0::SimdFloatDiv                 0      0.00%     28.43% # Class of committed instruction
system.cpu.op_class_0::SimdFloatMisc               18      0.00%     28.43% # Class of committed instruction
system.cpu.op_class_0::SimdFloatMult                0      0.00%     28.43% # Class of committed instruction
system.cpu.op_class_0::SimdFloatMultAcc             0      0.00%     28.43% # Class of committed instruction
system.cpu.op_class_0::SimdFloatSqrt                0      0.00%     28.43% # Class of committed instruction
system.cpu.op_class_0::SimdReduceAdd                0      0.00%     28.43% # Class of committed instruction
system.cpu.op_class_0::SimdReduceAlu                0      0.00%     28.43% # Class of committed instruction
system.cpu.op_class_0::SimdReduceCmp                0      0.00%     28.43% # Class of committed instruction
system.cpu.op_class_0::SimdFloatReduceAdd            0      0.00%     28.43% # Class of committed instruction
system.cpu.op_class_0::SimdFloatReduceCmp            0      0.00%     28.43% # Class of committed instruction
system.cpu.op_class_0::SimdAes                      0      0.00%     28.43% # Class of committed instruction
system.cpu.op_class_0::SimdAesMix                   0      0.00%     28.43% # Class of committed instruction
system.cpu.op_class_0::SimdSha1Hash                 0      0.00%     28.43% # Class of committed instruction
system.cpu.op_class_0::SimdSha1Hash2                0      0.00%     28.43% # Class of committed instruction
system.cpu.op_class_0::SimdSha256Hash               0      0.00%     28.43% # Class of committed instruction
system.cpu.op_class_0::SimdSha256Hash2              0      0.00%     28.43% # Class of committed instruction
system.cpu.op_class_0::SimdShaSigma2                0      0.00%     28.43% # Class of committed instruction
system.cpu.op_class_0::SimdShaSigma3                0      0.00%     28.43% # Class of committed instruction
system.cpu.op_class_0::SimdPredAlu                  0      0.00%     28.43% # Class of committed instruction
system.cpu.op_class_0::MemRead                5721878     57.06%     85.48% # Class of committed instruction
system.cpu.op_class_0::MemWrite               1455694     14.52%    100.00% # Class of committed instruction
system.cpu.op_class_0::FloatMemRead                 0      0.00%    100.00% # Class of committed instruction
system.cpu.op_class_0::FloatMemWrite                0      0.00%    100.00% # Class of committed instruction
system.cpu.op_class_0::IprAccess                    0      0.00%    100.00% # Class of committed instruction
system.cpu.op_class_0::InstPrefetch                 0      0.00%    100.00% # Class of committed instruction
system.cpu.op_class_0::total                 10028311                       # Class of committed instruction
system.cpu.tickCycles                        14710174                       # Number of cycles that the object actually ticked
system.cpu.workload.numSyscalls                    84                       # Number of system calls
system.membus.snoop_filter.hit_multi_requests            0                       # Number of requests hitting in the snoop filter with multiple (>1) holders of the requested data.
system.membus.snoop_filter.hit_multi_snoops            0                       # Number of snoops hitting in the snoop filter with multiple (>1) holders of the requested data.
system.membus.snoop_filter.hit_single_requests       131648                       # Number of requests hitting in the snoop filter with a single holder of the requested data.
system.membus.snoop_filter.hit_single_snoops            0                       # Number of snoops hitting in the snoop filter with a single holder of the requested data.
system.membus.snoop_filter.tot_requests        329242                       # Total number of requests made to the snoop filter.
system.membus.snoop_filter.tot_snoops               0                       # Total number of snoops made to the snoop filter.
system.tol2bus.snoop_filter.hit_multi_requests           41                       # Number of requests hitting in the snoop filter with multiple (>1) holders of the requested data.
system.tol2bus.snoop_filter.hit_multi_snoops            0                       # Number of snoops hitting in the snoop filter with multiple (>1) holders of the requested data.
system.tol2bus.snoop_filter.hit_single_requests       196946                       # Number of requests hitting in the snoop filter with a single holder of the requested data.
system.tol2bus.snoop_filter.hit_single_snoops          501                       # Number of snoops hitting in the snoop filter with a single holder of the requested data.
system.tol2bus.snoop_filter.tot_requests       396528                       # Total number of requests made to the snoop filter.
system.tol2bus.snoop_filter.tot_snoops            501                       # Total number of snoops made to the snoop filter.
system.membus.pwrStateResidencyTicks::UNDEFINED  30052375000                       # Cumulative time (in ticks) in various power states
system.membus.trans_dist::ReadResp              87873                       # Transaction distribution
system.membus.trans_dist::WritebackDirty        79919                       # Transaction distribution
system.membus.trans_dist::CleanEvict            51726                       # Transaction distribution
system.membus.trans_dist::ReadExReq            109722                       # Transaction distribution
system.membus.trans_dist::ReadExResp           109722                       # Transaction distribution
system.membus.trans_dist::ReadSharedReq         87873                       # Transaction distribution
system.membus.trans_dist::InvalidateReq             2                       # Transaction distribution
system.membus.pkt_count_system.l2.mem_side::system.mem_ctrls.port       526837                       # Packet count per connected master and slave (bytes)
system.membus.pkt_count::total                 526837                       # Packet count per connected master and slave (bytes)
system.membus.pkt_size_system.l2.mem_side::system.mem_ctrls.port      8880448                       # Cumulative packet size per connected master and slave (bytes)
system.membus.pkt_size::total                 8880448                       # Cumulative packet size per connected master and slave (bytes)
system.membus.snoops                                0                       # Total snoops (count)
system.membus.snoopTraffic                          0                       # Total snoop traffic (bytes)
system.membus.snoop_fanout::samples            197597                       # Request fanout histogram
system.membus.snoop_fanout::mean                    0                       # Request fanout histogram
system.membus.snoop_fanout::stdev                   0                       # Request fanout histogram
system.membus.snoop_fanout::underflows              0      0.00%      0.00% # Request fanout histogram
system.membus.snoop_fanout::0                  197597    100.00%    100.00% # Request fanout histogram
system.membus.snoop_fanout::1                       0      0.00%    100.00% # Request fanout histogram
system.membus.snoop_fanout::overflows               0      0.00%    100.00% # Request fanout histogram
system.membus.snoop_fanout::min_value               0                       # Request fanout histogram
system.membus.snoop_fanout::max_value               0                       # Request fanout histogram
system.membus.snoop_fanout::total              197597                       # Request fanout histogram
system.membus.respLayer1.occupancy          661404750                       # Layer occupancy (ticks)
system.membus.respLayer1.utilization              2.2                       # Layer utilization (%)
system.membus.reqLayer0.occupancy           489080000                       # Layer occupancy (ticks)
system.membus.reqLayer0.utilization               1.6                       # Layer utilization (%)
system.tol2bus.pwrStateResidencyTicks::UNDEFINED  30052375000                       # Cumulative time (in ticks) in various power states
system.tol2bus.trans_dist::ReadResp             89844                       # Transaction distribution
system.tol2bus.trans_dist::WritebackDirty       189587                       # Transaction distribution
system.tol2bus.trans_dist::WritebackClean          280                       # Transaction distribution
system.tol2bus.trans_dist::CleanEvict          139215                       # Transaction distribution
system.tol2bus.trans_dist::ReadExReq           109743                       # Transaction distribution
system.tol2bus.trans_dist::ReadExResp          109743                       # Transaction distribution
system.tol2bus.trans_dist::ReadCleanReq           888                       # Transaction distribution
system.tol2bus.trans_dist::ReadSharedReq        88956                       # Transaction distribution
system.tol2bus.trans_dist::InvalidateReq            5                       # Transaction distribution
system.tol2bus.trans_dist::InvalidateResp            5                       # Transaction distribution
system.tol2bus.pkt_count_system.cpu.icache.mem_side::system.l2.cpu_side         2056                       # Packet count per connected master and slave (bytes)
system.tol2bus.pkt_count_system.cpu.dcache.mem_side::system.l2.cpu_side       594064                       # Packet count per connected master and slave (bytes)
system.tol2bus.pkt_count::total                596120                       # Packet count per connected master and slave (bytes)
system.tol2bus.pkt_size_system.cpu.icache.mem_side::system.l2.cpu_side        37376                       # Cumulative packet size per connected master and slave (bytes)
system.tol2bus.pkt_size_system.cpu.dcache.mem_side::system.l2.cpu_side      9867744                       # Cumulative packet size per connected master and slave (bytes)
system.tol2bus.pkt_size::total                9905120                       # Cumulative packet size per connected master and slave (bytes)
system.tol2bus.snoops                          132146                       # Total snoops (count)
system.tol2bus.snoopTraffic                   2557408                       # Total snoop traffic (bytes)
system.tol2bus.snoop_fanout::samples           331738                       # Request fanout histogram
system.tol2bus.snoop_fanout::mean            0.001664                       # Request fanout histogram
system.tol2bus.snoop_fanout::stdev           0.040758                       # Request fanout histogram
system.tol2bus.snoop_fanout::underflows             0      0.00%      0.00% # Request fanout histogram
system.tol2bus.snoop_fanout::0                 331186     99.83%     99.83% # Request fanout histogram
system.tol2bus.snoop_fanout::1                    552      0.17%    100.00% # Request fanout histogram
system.tol2bus.snoop_fanout::2                      0      0.00%    100.00% # Request fanout histogram
system.tol2bus.snoop_fanout::overflows              0      0.00%    100.00% # Request fanout histogram
system.tol2bus.snoop_fanout::min_value              0                       # Request fanout histogram
system.tol2bus.snoop_fanout::max_value              1                       # Request fanout histogram
system.tol2bus.snoop_fanout::total             331738                       # Request fanout histogram
system.tol2bus.reqLayer0.occupancy          506476000                       # Layer occupancy (ticks)
system.tol2bus.reqLayer0.utilization              1.7                       # Layer utilization (%)
system.tol2bus.respLayer1.occupancy         397405997                       # Layer occupancy (ticks)
system.tol2bus.respLayer1.utilization             1.3                       # Layer utilization (%)
system.tol2bus.respLayer0.occupancy           1776000                       # Layer occupancy (ticks)
system.tol2bus.respLayer0.utilization             0.0                       # Layer utilization (%)
system.voltage_domain.voltage                       1                       # Voltage in Volts
system.clk_domain.clock                          1000                       # Clock period in ticks
system.l2.pwrStateResidencyTicks::UNDEFINED  30052375000                       # Cumulative time (in ticks) in various power states
system.l2.demand_hits::.cpu.inst                   70                       # number of demand (read+write) hits
system.l2.demand_hits::.cpu.data                 1919                       # number of demand (read+write) hits
system.l2.demand_hits::total                     1989                       # number of demand (read+write) hits
system.l2.overall_hits::.cpu.inst                  70                       # number of overall hits
system.l2.overall_hits::.cpu.data                1919                       # number of overall hits
system.l2.overall_hits::total                    1989                       # number of overall hits
system.l2.demand_misses::.cpu.inst                818                       # number of demand (read+write) misses
system.l2.demand_misses::.cpu.data             196780                       # number of demand (read+write) misses
system.l2.demand_misses::total                 197598                       # number of demand (read+write) misses
system.l2.overall_misses::.cpu.inst               818                       # number of overall misses
system.l2.overall_misses::.cpu.data            196780                       # number of overall misses
system.l2.overall_misses::total                197598                       # number of overall misses
system.l2.demand_miss_latency::.cpu.inst     78998000                       # number of demand (read+write) miss cycles
system.l2.demand_miss_latency::.cpu.data  19256855000                       # number of demand (read+write) miss cycles
system.l2.demand_miss_latency::total      19335853000                       # number of demand (read+write) miss cycles
system.l2.overall_miss_latency::.cpu.inst     78998000                       # number of overall miss cycles
system.l2.overall_miss_latency::.cpu.data  19256855000                       # number of overall miss cycles
system.l2.overall_miss_latency::total     19335853000                       # number of overall miss cycles
system.l2.demand_accesses::.cpu.inst              888                       # number of demand (read+write) accesses
system.l2.demand_accesses::.cpu.data           198699                       # number of demand (read+write) accesses
system.l2.demand_accesses::total               199587                       # number of demand (read+write) accesses
system.l2.overall_accesses::.cpu.inst             888                       # number of overall (read+write) accesses
system.l2.overall_accesses::.cpu.data          198699                       # number of overall (read+write) accesses
system.l2.overall_accesses::total              199587                       # number of overall (read+write) accesses
system.l2.demand_miss_rate::.cpu.inst        0.921171                       # miss rate for demand accesses
system.l2.demand_miss_rate::.cpu.data        0.990342                       # miss rate for demand accesses
system.l2.demand_miss_rate::total            0.990034                       # miss rate for demand accesses
system.l2.overall_miss_rate::.cpu.inst       0.921171                       # miss rate for overall accesses
system.l2.overall_miss_rate::.cpu.data       0.990342                       # miss rate for overall accesses
system.l2.overall_miss_rate::total           0.990034                       # miss rate for overall accesses
system.l2.demand_avg_miss_latency::.cpu.inst 96574.572127                       # average overall miss latency
system.l2.demand_avg_miss_latency::.cpu.data 97859.818071                       # average overall miss latency
system.l2.demand_avg_miss_latency::total 97854.497515                       # average overall miss latency
system.l2.overall_avg_miss_latency::.cpu.inst 96574.572127                       # average overall miss latency
system.l2.overall_avg_miss_latency::.cpu.data 97859.818071                       # average overall miss latency
system.l2.overall_avg_miss_latency::total 97854.497515                       # average overall miss latency
system.l2.blocked_cycles::no_mshrs                  0                       # number of cycles access was blocked
system.l2.blocked_cycles::no_targets                0                       # number of cycles access was blocked
system.l2.blocked::no_mshrs                         0                       # number of cycles access was blocked
system.l2.blocked::no_targets                       0                       # number of cycles access was blocked
system.l2.avg_blocked_cycles::no_mshrs            nan                       # average number of cycles each access was blocked
system.l2.avg_blocked_cycles::no_targets          nan                       # average number of cycles each access was blocked
system.l2.writebacks::.writebacks               79919                       # number of writebacks
system.l2.writebacks::total                     79919                       # number of writebacks
system.l2.demand_mshr_hits::.cpu.data               3                       # number of demand (read+write) MSHR hits
system.l2.demand_mshr_hits::total                   3                       # number of demand (read+write) MSHR hits
system.l2.overall_mshr_hits::.cpu.data              3                       # number of overall MSHR hits
system.l2.overall_mshr_hits::total                  3                       # number of overall MSHR hits
system.l2.demand_mshr_misses::.cpu.inst           818                       # number of demand (read+write) MSHR misses
system.l2.demand_mshr_misses::.cpu.data        196777                       # number of demand (read+write) MSHR misses
system.l2.demand_mshr_misses::total            197595                       # number of demand (read+write) MSHR misses
system.l2.overall_mshr_misses::.cpu.inst          818                       # number of overall MSHR misses
system.l2.overall_mshr_misses::.cpu.data       196777                       # number of overall MSHR misses
system.l2.overall_mshr_misses::total           197595                       # number of overall MSHR misses
system.l2.demand_mshr_miss_latency::.cpu.inst     62638000                       # number of demand (read+write) MSHR miss cycles
system.l2.demand_mshr_miss_latency::.cpu.data  15321068000                       # number of demand (read+write) MSHR miss cycles
system.l2.demand_mshr_miss_latency::total  15383706000                       # number of demand (read+write) MSHR miss cycles
system.l2.overall_mshr_miss_latency::.cpu.inst     62638000                       # number of overall MSHR miss cycles
system.l2.overall_mshr_miss_latency::.cpu.data  15321068000                       # number of overall MSHR miss cycles
system.l2.overall_mshr_miss_latency::total  15383706000                       # number of overall MSHR miss cycles
system.l2.demand_mshr_miss_rate::.cpu.inst     0.921171                       # mshr miss rate for demand accesses
system.l2.demand_mshr_miss_rate::.cpu.data     0.990327                       # mshr miss rate for demand accesses
system.l2.demand_mshr_miss_rate::total       0.990019                       # mshr miss rate for demand accesses
system.l2.overall_mshr_miss_rate::.cpu.inst     0.921171                       # mshr miss rate for overall accesses
system.l2.overall_mshr_miss_rate::.cpu.data     0.990327                       # mshr miss rate for overall accesses
system.l2.overall_mshr_miss_rate::total      0.990019                       # mshr miss rate for overall accesses
system.l2.demand_avg_mshr_miss_latency::.cpu.inst 76574.572127                       # average overall mshr miss latency
system.l2.demand_avg_mshr_miss_latency::.cpu.data 77860.054783                       # average overall mshr miss latency
system.l2.demand_avg_mshr_miss_latency::total 77854.733166                       # average overall mshr miss latency
system.l2.overall_avg_mshr_miss_latency::.cpu.inst 76574.572127                       # average overall mshr miss latency
system.l2.overall_avg_mshr_miss_latency::.cpu.data 77860.054783                       # average overall mshr miss latency
system.l2.overall_avg_mshr_miss_latency::total 77854.733166                       # average overall mshr miss latency
system.l2.replacements                         132146                       # number of replacements
system.l2.WritebackDirty_hits::.writebacks       109668                       # number of WritebackDirty hits
system.l2.WritebackDirty_hits::total           109668                       # number of WritebackDirty hits
system.l2.WritebackDirty_accesses::.writebacks       109668                       # number of WritebackDirty accesses(hits+misses)
system.l2.WritebackDirty_accesses::total       109668                       # number of WritebackDirty accesses(hits+misses)
system.l2.WritebackClean_hits::.writebacks          273                       # number of WritebackClean hits
system.l2.WritebackClean_hits::total              273                       # number of WritebackClean hits
system.l2.WritebackClean_accesses::.writebacks          273                       # number of WritebackClean accesses(hits+misses)
system.l2.WritebackClean_accesses::total          273                       # number of WritebackClean accesses(hits+misses)
system.l2.ReadExReq_hits::.cpu.data                21                       # number of ReadExReq hits
system.l2.ReadExReq_hits::total                    21                       # number of ReadExReq hits
system.l2.ReadExReq_misses::.cpu.data          109722                       # number of ReadExReq misses
system.l2.ReadExReq_misses::total              109722                       # number of ReadExReq misses
system.l2.ReadExReq_miss_latency::.cpu.data  10891331000                       # number of ReadExReq miss cycles
system.l2.ReadExReq_miss_latency::total   10891331000                       # number of ReadExReq miss cycles
system.l2.ReadExReq_accesses::.cpu.data        109743                       # number of ReadExReq accesses(hits+misses)
system.l2.ReadExReq_accesses::total            109743                       # number of ReadExReq accesses(hits+misses)
system.l2.ReadExReq_miss_rate::.cpu.data     0.999809                       # miss rate for ReadExReq accesses
system.l2.ReadExReq_miss_rate::total         0.999809                       # miss rate for ReadExReq accesses
system.l2.ReadExReq_avg_miss_latency::.cpu.data 99262.964583                       # average ReadExReq miss latency
system.l2.ReadExReq_avg_miss_latency::total 99262.964583                       # average ReadExReq miss latency
system.l2.ReadExReq_mshr_misses::.cpu.data       109722                       # number of ReadExReq MSHR misses
system.l2.ReadExReq_mshr_misses::total         109722                       # number of ReadExReq MSHR misses
system.l2.ReadExReq_mshr_miss_latency::.cpu.data   8696891000                       # number of ReadExReq MSHR miss cycles
system.l2.ReadExReq_mshr_miss_latency::total   8696891000                       # number of ReadExReq MSHR miss cycles
system.l2.ReadExReq_mshr_miss_rate::.cpu.data     0.999809                       # mshr miss rate for ReadExReq accesses
system.l2.ReadExReq_mshr_miss_rate::total     0.999809                       # mshr miss rate for ReadExReq accesses
system.l2.ReadExReq_avg_mshr_miss_latency::.cpu.data 79262.964583                       # average ReadExReq mshr miss latency
system.l2.ReadExReq_avg_mshr_miss_latency::total 79262.964583                       # average ReadExReq mshr miss latency
system.l2.ReadCleanReq_hits::.cpu.inst             70                       # number of ReadCleanReq hits
system.l2.ReadCleanReq_hits::total                 70                       # number of ReadCleanReq hits
system.l2.ReadCleanReq_misses::.cpu.inst          818                       # number of ReadCleanReq misses
system.l2.ReadCleanReq_misses::total              818                       # number of ReadCleanReq misses
system.l2.ReadCleanReq_miss_latency::.cpu.inst     78998000                       # number of ReadCleanReq miss cycles
system.l2.ReadCleanReq_miss_latency::total     78998000                       # number of ReadCleanReq miss cycles
system.l2.ReadCleanReq_accesses::.cpu.inst          888                       # number of ReadCleanReq accesses(hits+misses)
system.l2.ReadCleanReq_accesses::total            888                       # number of ReadCleanReq accesses(hits+misses)
system.l2.ReadCleanReq_miss_rate::.cpu.inst     0.921171                       # miss rate for ReadCleanReq accesses
system.l2.ReadCleanReq_miss_rate::total      0.921171                       # miss rate for ReadCleanReq accesses
system.l2.ReadCleanReq_avg_miss_latency::.cpu.inst 96574.572127                       # average ReadCleanReq miss latency
system.l2.ReadCleanReq_avg_miss_latency::total 96574.572127                       # average ReadCleanReq miss latency
system.l2.ReadCleanReq_mshr_misses::.cpu.inst          818                       # number of ReadCleanReq MSHR misses
system.l2.ReadCleanReq_mshr_misses::total          818                       # number of ReadCleanReq MSHR misses
system.l2.ReadCleanReq_mshr_miss_latency::.cpu.inst     62638000                       # number of ReadCleanReq MSHR miss cycles
system.l2.ReadCleanReq_mshr_miss_latency::total     62638000                       # number of ReadCleanReq MSHR miss cycles
system.l2.ReadCleanReq_mshr_miss_rate::.cpu.inst     0.921171                       # mshr miss rate for ReadCleanReq accesses
system.l2.ReadCleanReq_mshr_miss_rate::total     0.921171                       # mshr miss rate for ReadCleanReq accesses
system.l2.ReadCleanReq_avg_mshr_miss_latency::.cpu.inst 76574.572127                       # average ReadCleanReq mshr miss latency
system.l2.ReadCleanReq_avg_mshr_miss_latency::total 76574.572127                       # average ReadCleanReq mshr miss latency
system.l2.ReadSharedReq_hits::.cpu.data          1898                       # number of ReadSharedReq hits
system.l2.ReadSharedReq_hits::total              1898                       # number of ReadSharedReq hits
system.l2.ReadSharedReq_misses::.cpu.data        87058                       # number of ReadSharedReq misses
system.l2.ReadSharedReq_misses::total           87058                       # number of ReadSharedReq misses
system.l2.ReadSharedReq_miss_latency::.cpu.data   8365524000                       # number of ReadSharedReq miss cycles
system.l2.ReadSharedReq_miss_latency::total   8365524000                       # number of ReadSharedReq miss cycles
system.l2.ReadSharedReq_accesses::.cpu.data        88956                       # number of ReadSharedReq accesses(hits+misses)
system.l2.ReadSharedReq_accesses::total         88956                       # number of ReadSharedReq accesses(hits+misses)
system.l2.ReadSharedReq_miss_rate::.cpu.data     0.978664                       # miss rate for ReadSharedReq accesses
system.l2.ReadSharedReq_miss_rate::total     0.978664                       # miss rate for ReadSharedReq accesses
system.l2.ReadSharedReq_avg_miss_latency::.cpu.data 96091.387351                       # average ReadSharedReq miss latency
system.l2.ReadSharedReq_avg_miss_latency::total 96091.387351                       # average ReadSharedReq miss latency
system.l2.ReadSharedReq_mshr_hits::.cpu.data            3                       # number of ReadSharedReq MSHR hits
system.l2.ReadSharedReq_mshr_hits::total            3                       # number of ReadSharedReq MSHR hits
system.l2.ReadSharedReq_mshr_misses::.cpu.data        87055                       # number of ReadSharedReq MSHR misses
system.l2.ReadSharedReq_mshr_misses::total        87055                       # number of ReadSharedReq MSHR misses
system.l2.ReadSharedReq_mshr_miss_latency::.cpu.data   6624177000                       # number of ReadSharedReq MSHR miss cycles
system.l2.ReadSharedReq_mshr_miss_latency::total   6624177000                       # number of ReadSharedReq MSHR miss cycles
system.l2.ReadSharedReq_mshr_miss_rate::.cpu.data     0.978630                       # mshr miss rate for ReadSharedReq accesses
system.l2.ReadSharedReq_mshr_miss_rate::total     0.978630                       # mshr miss rate for ReadSharedReq accesses
system.l2.ReadSharedReq_avg_mshr_miss_latency::.cpu.data 76091.861467                       # average ReadSharedReq mshr miss latency
system.l2.ReadSharedReq_avg_mshr_miss_latency::total 76091.861467                       # average ReadSharedReq mshr miss latency
system.l2.InvalidateReq_hits::.cpu.data             3                       # number of InvalidateReq hits
system.l2.InvalidateReq_hits::total                 3                       # number of InvalidateReq hits
system.l2.InvalidateReq_misses::.cpu.data            2                       # number of InvalidateReq misses
system.l2.InvalidateReq_misses::total               2                       # number of InvalidateReq misses
system.l2.InvalidateReq_accesses::.cpu.data            5                       # number of InvalidateReq accesses(hits+misses)
system.l2.InvalidateReq_accesses::total             5                       # number of InvalidateReq accesses(hits+misses)
system.l2.InvalidateReq_miss_rate::.cpu.data     0.400000                       # miss rate for InvalidateReq accesses
system.l2.InvalidateReq_miss_rate::total     0.400000                       # miss rate for InvalidateReq accesses
system.l2.InvalidateReq_mshr_misses::.cpu.data            2                       # number of InvalidateReq MSHR misses
system.l2.InvalidateReq_mshr_misses::total            2                       # number of InvalidateReq MSHR misses
system.l2.InvalidateReq_mshr_miss_latency::.cpu.data        58000                       # number of InvalidateReq MSHR miss cycles
system.l2.InvalidateReq_mshr_miss_latency::total        58000                       # number of InvalidateReq MSHR miss cycles
system.l2.InvalidateReq_mshr_miss_rate::.cpu.data     0.400000                       # mshr miss rate for InvalidateReq accesses
system.l2.InvalidateReq_mshr_miss_rate::total     0.400000                       # mshr miss rate for InvalidateReq accesses
system.l2.InvalidateReq_avg_mshr_miss_latency::.cpu.data        29000                       # average InvalidateReq mshr miss latency
system.l2.InvalidateReq_avg_mshr_miss_latency::total        29000                       # average InvalidateReq mshr miss latency
system.l2.tags.pwrStateResidencyTicks::UNDEFINED  30052375000                       # Cumulative time (in ticks) in various power states
system.l2.tags.tagsinuse                 55509.755339                       # Cycle average of tags in use
system.l2.tags.total_refs                      396482                       # Total number of references to valid blocks.
system.l2.tags.sampled_refs                    197684                       # Sample count of references to valid blocks.
system.l2.tags.avg_refs                      2.005635                       # Average number of references to valid blocks.
system.l2.tags.warmup_cycle                     87000                       # Cycle when the warmup percentage was hit.
system.l2.tags.occ_blocks::.writebacks      42.315492                       # Average occupied blocks per requestor
system.l2.tags.occ_blocks::.cpu.inst       218.666870                       # Average occupied blocks per requestor
system.l2.tags.occ_blocks::.cpu.data     55248.772977                       # Average occupied blocks per requestor
system.l2.tags.occ_percent::.writebacks      0.000646                       # Average percentage of cache occupancy
system.l2.tags.occ_percent::.cpu.inst        0.003337                       # Average percentage of cache occupancy
system.l2.tags.occ_percent::.cpu.data        0.843029                       # Average percentage of cache occupancy
system.l2.tags.occ_percent::total            0.847012                       # Average percentage of cache occupancy
system.l2.tags.occ_task_id_blocks::1024         65535                       # Occupied blocks per task id
system.l2.tags.age_task_id_blocks_1024::0            2                       # Occupied blocks per task id
system.l2.tags.age_task_id_blocks_1024::1           19                       # Occupied blocks per task id
system.l2.tags.age_task_id_blocks_1024::2          336                       # Occupied blocks per task id
system.l2.tags.age_task_id_blocks_1024::3         3672                       # Occupied blocks per task id
system.l2.tags.age_task_id_blocks_1024::4        61506                       # Occupied blocks per task id
system.l2.tags.occ_task_id_percent::1024     0.999985                       # Percentage of cache occupancy per task id
system.l2.tags.tag_accesses                   3369580                       # Number of tag accesses
system.l2.tags.data_accesses                  3369580                       # Number of data accesses
system.cpu_voltage_domain.voltage                   1                       # Voltage in Volts
system.mem_ctrls.pwrStateResidencyTicks::UNDEFINED  30052375000                       # Cumulative time (in ticks) in various power states
system.mem_ctrls.bytes_read::.cpu.inst          26176                       # Number of bytes read from this memory
system.mem_ctrls.bytes_read::.cpu.data        6296864                       # Number of bytes read from this memory
system.mem_ctrls.bytes_read::total            6323040                       # Number of bytes read from this memory
system.mem_ctrls.bytes_inst_read::.cpu.inst        26176                       # Number of instructions bytes read from this memory
system.mem_ctrls.bytes_inst_read::total         26176                       # Number of instructions bytes read from this memory
system.mem_ctrls.bytes_written::.writebacks      2557408                       # Number of bytes written to this memory
system.mem_ctrls.bytes_written::total         2557408                       # Number of bytes written to this memory
system.mem_ctrls.num_reads::.cpu.inst             818                       # Number of read requests responded to by this memory
system.mem_ctrls.num_reads::.cpu.data          196777                       # Number of read requests responded to by this memory
system.mem_ctrls.num_reads::total              197595                       # Number of read requests responded to by this memory
system.mem_ctrls.num_writes::.writebacks        79919                       # Number of write requests responded to by this memory
system.mem_ctrls.num_writes::total              79919                       # Number of write requests responded to by this memory
system.mem_ctrls.bw_read::.cpu.inst            871013                       # Total read bandwidth from this memory (bytes/s)
system.mem_ctrls.bw_read::.cpu.data         209529663                       # Total read bandwidth from this memory (bytes/s)
system.mem_ctrls.bw_read::total             210400675                       # Total read bandwidth from this memory (bytes/s)
system.mem_ctrls.bw_inst_read::.cpu.inst       871013                       # Instruction read bandwidth from this memory (bytes/s)
system.mem_ctrls.bw_inst_read::total           871013                       # Instruction read bandwidth from this memory (bytes/s)
system.mem_ctrls.bw_write::.writebacks       85098366                       # Write bandwidth from this memory (bytes/s)
system.mem_ctrls.bw_write::total             85098366                       # Write bandwidth from this memory (bytes/s)
system.mem_ctrls.bw_total::.writebacks       85098366                       # Total bandwidth to/from this memory (bytes/s)
system.mem_ctrls.bw_total::.cpu.inst           871013                       # Total bandwidth to/from this memory (bytes/s)
system.mem_ctrls.bw_total::.cpu.data        209529663                       # Total bandwidth to/from this memory (bytes/s)
system.mem_ctrls.bw_total::total            295499041                       # Total bandwidth to/from this memory (bytes/s)
system.mem_ctrls.avgPriority_.writebacks::samples     58014.00                       # Average QoS priority value for accepted requests
system.mem_ctrls.avgPriority_.cpu.inst::samples       818.00                       # Average QoS priority value for accepted requests
system.mem_ctrls.avgPriority_.cpu.data::samples    196777.00                       # Average QoS priority value for accepted requests
system.mem_ctrls.priorityMinLatency      0.000000018750                       # per QoS priority minimum request to response latency (s)
system.mem_ctrls.priorityMaxLatency      0.001790340500                       # per QoS priority maximum request to response latency (s)
system.mem_ctrls.numReadWriteTurnArounds         3609                       # Number of turnarounds from READ to WRITE
system.mem_ctrls.numWriteReadTurnArounds         3609                       # Number of turnarounds from WRITE to READ
system.mem_ctrls.numStayReadState              477135                       # Number of times bus staying in READ state
system.mem_ctrls.numStayWriteState              54475                       # Number of times bus staying in WRITE state
system.mem_ctrls.readReqs                      197595                       # Number of read requests accepted
system.mem_ctrls.writeReqs                      79919                       # Number of write requests accepted
system.mem_ctrls.readBursts                    197595                       # Number of DRAM read bursts, including those serviced by the write queue
system.mem_ctrls.writeBursts                    79919                       # Number of DRAM write bursts, including those merged in the write queue
system.mem_ctrls.servicedByWrQ                      0                       # Number of DRAM read bursts serviced by the write queue
system.mem_ctrls.mergedWrBursts                 21905                       # Number of DRAM write bursts merged with an existing one
system.mem_ctrls.neitherReadNorWriteReqs            0                       # Number of requests that are neither read nor write
system.mem_ctrls.perBankRdBursts::0             12676                       # Per bank write bursts
system.mem_ctrls.perBankRdBursts::1             12492                       # Per bank write bursts
system.mem_ctrls.perBankRdBursts::2             12435                       # Per bank write bursts
system.mem_ctrls.perBankRdBursts::3             12296                       # Per bank write bursts
system.mem_ctrls.perBankRdBursts::4             12427                       # Per bank write bursts
system.mem_ctrls.perBankRdBursts::5             12296                       # Per bank write bursts
system.mem_ctrls.perBankRdBursts::6             12318                       # Per bank write bursts
system.mem_ctrls.perBankRdBursts::7             12636                       # Per bank write bursts
system.mem_ctrls.perBankRdBursts::8             12308                       # Per bank write bursts
system.mem_ctrls.perBankRdBursts::9             12177                       # Per bank write bursts
system.mem_ctrls.perBankRdBursts::10            12209                       # Per bank write bursts
system.mem_ctrls.perBankRdBursts::11            12195                       # Per bank write bursts
system.mem_ctrls.perBankRdBursts::12            12337                       # Per bank write bursts
system.mem_ctrls.perBankRdBursts::13            12280                       # Per bank write bursts
system.mem_ctrls.perBankRdBursts::14            12214                       # Per bank write bursts
system.mem_ctrls.perBankRdBursts::15            12299                       # Per bank write bursts
system.mem_ctrls.perBankWrBursts::0              3686                       # Per bank write bursts
system.mem_ctrls.perBankWrBursts::1              3652                       # Per bank write bursts
system.mem_ctrls.perBankWrBursts::2              3683                       # Per bank write bursts
system.mem_ctrls.perBankWrBursts::3              3647                       # Per bank write bursts
system.mem_ctrls.perBankWrBursts::4              3638                       # Per bank write bursts
system.mem_ctrls.perBankWrBursts::5              3624                       # Per bank write bursts
system.mem_ctrls.perBankWrBursts::6              3636                       # Per bank write bursts
system.mem_ctrls.perBankWrBursts::7              3674                       # Per bank write bursts
system.mem_ctrls.perBankWrBursts::8              3627                       # Per bank write bursts
system.mem_ctrls.perBankWrBursts::9              3602                       # Per bank write bursts
system.mem_ctrls.perBankWrBursts::10             3620                       # Per bank write bursts
system.mem_ctrls.perBankWrBursts::11             3623                       # Per bank write bursts
system.mem_ctrls.perBankWrBursts::12             3630                       # Per bank write bursts
system.mem_ctrls.perBankWrBursts::13             3572                       # Per bank write bursts
system.mem_ctrls.perBankWrBursts::14             3509                       # Per bank write bursts
system.mem_ctrls.perBankWrBursts::15             3561                       # Per bank write bursts
system.mem_ctrls.avgRdQLen                       1.17                       # Average read queue length when enqueuing
system.mem_ctrls.avgWrQLen                      25.01                       # Average write queue length when enqueuing
system.mem_ctrls.totQLat                   1532828000                       # Total ticks spent queuing
system.mem_ctrls.totBusLat                  987975000                       # Total ticks spent in databus transfers
system.mem_ctrls.totMemAccLat              5237734250                       # Total ticks spent from burst creation until serviced by the DRAM
system.mem_ctrls.avgQLat                      7757.42                       # Average queueing delay per DRAM burst
system.mem_ctrls.avgBusLat                    5000.00                       # Average bus latency per DRAM burst
system.mem_ctrls.avgMemAccLat                26507.42                       # Average memory access latency per DRAM burst
system.mem_ctrls.numRdRetry                         0                       # Number of times read queue was full causing retry
system.mem_ctrls.numWrRetry                         0                       # Number of times write queue was full causing retry
system.mem_ctrls.readRowHits                   178425                       # Number of row buffer hits during reads
system.mem_ctrls.writeRowHits                   50093                       # Number of row buffer hits during writes
system.mem_ctrls.readRowHitRate                 90.30                       # Row buffer hit rate for reads
system.mem_ctrls.writeRowHitRate                86.35                       # Row buffer hit rate for writes
system.mem_ctrls.readPktSize::0                     0                       # Read request sizes (log2)
system.mem_ctrls.readPktSize::1                     0                       # Read request sizes (log2)
system.mem_ctrls.readPktSize::2                     0                       # Read request sizes (log2)
system.mem_ctrls.readPktSize::3                     0                       # Read request sizes (log2)
system.mem_ctrls.readPktSize::4                     0                       # Read request sizes (log2)
system.mem_ctrls.readPktSize::5                197595                       # Read request sizes (log2)
system.mem_ctrls.readPktSize::6                     0                       # Read request sizes (log2)
system.mem_ctrls.writePktSize::0                    0                       # Write request sizes (log2)
system.mem_ctrls.writePktSize::1                    0                       # Write request sizes (log2)
system.mem_ctrls.writePktSize::2                    0                       # Write request sizes (log2)
system.mem_ctrls.writePktSize::3                    0                       # Write request sizes (log2)
system.mem_ctrls.writePktSize::4                    0                       # Write request sizes (log2)
system.mem_ctrls.writePktSize::5                79919                       # Write request sizes (log2)
system.mem_ctrls.writePktSize::6                    0                       # Write request sizes (log2)
system.mem_ctrls.rdQLenPdf::0                  153021                       # What read queue length does an incoming req see
system.mem_ctrls.rdQLenPdf::1                   44476                       # What read queue length does an incoming req see
system.mem_ctrls.rdQLenPdf::2                      94                       # What read queue length does an incoming req see
system.mem_ctrls.rdQLenPdf::3                       3                       # What read queue length does an incoming req see
system.mem_ctrls.rdQLenPdf::4                       1                       # What read queue length does an incoming req see
system.mem_ctrls.rdQLenPdf::5                       0                       # What read queue length does an incoming req see
system.mem_ctrls.rdQLenPdf::6                       0                       # What read queue length does an incoming req see
system.mem_ctrls.rdQLenPdf::7                       0                       # What read queue length does an incoming req see
system.mem_ctrls.rdQLenPdf::8                       0                       # What read queue length does an incoming req see
system.mem_ctrls.rdQLenPdf::9                       0                       # What read queue length does an incoming req see
system.mem_ctrls.rdQLenPdf::10                      0                       # What read queue length does an incoming req see
system.mem_ctrls.rdQLenPdf::11                      0                       # What read queue length does an incoming req see
system.mem_ctrls.rdQLenPdf::12                      0                       # What read queue length does an incoming req see
system.mem_ctrls.rdQLenPdf::13                      0                       # What read queue length does an incoming req see
system.mem_ctrls.rdQLenPdf::14                      0                       # What read queue length does an incoming req see
system.mem_ctrls.rdQLenPdf::15                      0                       # What read queue length does an incoming req see
system.mem_ctrls.rdQLenPdf::16                      0                       # What read queue length does an incoming req see
system.mem_ctrls.rdQLenPdf::17                      0                       # What read queue length does an incoming req see
system.mem_ctrls.rdQLenPdf::18                      0                       # What read queue length does an incoming req see
system.mem_ctrls.rdQLenPdf::19                      0                       # What read queue length does an incoming req see
system.mem_ctrls.rdQLenPdf::20                      0                       # What read queue length does an incoming req see
system.mem_ctrls.rdQLenPdf::21                      0                       # What read queue length does an incoming req see
system.mem_ctrls.rdQLenPdf::22                      0                       # What read queue length does an incoming req see
system.mem_ctrls.rdQLenPdf::23                      0                       # What read queue length does an incoming req see
system.mem_ctrls.rdQLenPdf::24                      0                       # What read queue length does an incoming req see
system.mem_ctrls.rdQLenPdf::25                      0                       # What read queue length does an incoming req see
system.mem_ctrls.rdQLenPdf::26                      0                       # What read queue length does an incoming req see
system.mem_ctrls.rdQLenPdf::27                      0                       # What read queue length does an incoming req see
system.mem_ctrls.rdQLenPdf::28                      0                       # What read queue length does an incoming req see
system.mem_ctrls.rdQLenPdf::29                      0                       # What read queue length does an incoming req see
system.mem_ctrls.rdQLenPdf::30                      0                       # What read queue length does an incoming req see
system.mem_ctrls.rdQLenPdf::31                      0                       # What read queue length does an incoming req see
system.mem_ctrls.wrQLenPdf::0                       1                       # What write queue length does an incoming req see
system.mem_ctrls.wrQLenPdf::1                       1                       # What write queue length does an incoming req see
system.mem_ctrls.wrQLenPdf::2                       1                       # What write queue length does an incoming req see
system.mem_ctrls.wrQLenPdf::3                       1                       # What write queue length does an incoming req see
system.mem_ctrls.wrQLenPdf::4                       1                       # What write queue length does an incoming req see
system.mem_ctrls.wrQLenPdf::5                       1                       # What write queue length does an incoming req see
system.mem_ctrls.wrQLenPdf::6                       1                       # What write queue length does an incoming req see
system.mem_ctrls.wrQLenPdf::7                       1                       # What write queue length does an incoming req see
system.mem_ctrls.wrQLenPdf::8                       1                       # What write queue length does an incoming req see
system.mem_ctrls.wrQLenPdf::9                       1                       # What write queue length does an incoming req see
system.mem_ctrls.wrQLenPdf::10                      1                       # What write queue length does an incoming req see
system.mem_ctrls.wrQLenPdf::11                      1                       # What write queue length does an incoming req see
system.mem_ctrls.wrQLenPdf::12                      1                       # What write queue length does an incoming req see
system.mem_ctrls.wrQLenPdf::13                      1                       # What write queue length does an incoming req see
system.mem_ctrls.wrQLenPdf::14                      1                       # What write queue length does an incoming req see
system.mem_ctrls.wrQLenPdf::15                     76                       # What write queue length does an incoming req see
system.mem_ctrls.wrQLenPdf::16                    118                       # What write queue length does an incoming req see
system.mem_ctrls.wrQLenPdf::17                   3342                       # What write queue length does an incoming req see
system.mem_ctrls.wrQLenPdf::18                   3624                       # What write queue length does an incoming req see
system.mem_ctrls.wrQLenPdf::19                   3618                       # What write queue length does an incoming req see
system.mem_ctrls.wrQLenPdf::20                   3625                       # What write queue length does an incoming req see
system.mem_ctrls.wrQLenPdf::21                   3696                       # What write queue length does an incoming req see
system.mem_ctrls.wrQLenPdf::22                   3650                       # What write queue length does an incoming req see
system.mem_ctrls.wrQLenPdf::23                   3631                       # What write queue length does an incoming req see
system.mem_ctrls.wrQLenPdf::24                   3641                       # What write queue length does an incoming req see
system.mem_ctrls.wrQLenPdf::25                   3620                       # What write queue length does an incoming req see
system.mem_ctrls.wrQLenPdf::26                   3634                       # What write queue length does an incoming req see
system.mem_ctrls.wrQLenPdf::27                   3610                       # What write queue length does an incoming req see
system.mem_ctrls.wrQLenPdf::28                   3615                       # What write queue length does an incoming req see
system.mem_ctrls.wrQLenPdf::29                   3624                       # What write queue length does an incoming req see
system.mem_ctrls.wrQLenPdf::30                   3615                       # What write queue length does an incoming req see
system.mem_ctrls.wrQLenPdf::31                   3648                       # What write queue length does an incoming req see
system.mem_ctrls.wrQLenPdf::32                   3609                       # What write queue length does an incoming req see
system.mem_ctrls.wrQLenPdf::33                      3                       # What write queue length does an incoming req see
system.mem_ctrls.wrQLenPdf::34                      0                       # What write queue length does an incoming req see
system.mem_ctrls.wrQLenPdf::35                      0                       # What write queue length does an incoming req see
system.mem_ctrls.wrQLenPdf::36                      0                       # What write queue length does an incoming req see
system.mem_ctrls.wrQLenPdf::37                      0                       # What write queue length does an incoming req see
system.mem_ctrls.wrQLenPdf::38                      0                       # What write queue length does an incoming req see
system.mem_ctrls.wrQLenPdf::39                      0                       # What write queue length does an incoming req see
system.mem_ctrls.wrQLenPdf::40                      0                       # What write queue length does an incoming req see
system.mem_ctrls.wrQLenPdf::41                      0                       # What write queue length does an incoming req see
system.mem_ctrls.wrQLenPdf::42                      0                       # What write queue length does an incoming req see
system.mem_ctrls.wrQLenPdf::43                      0                       # What write queue length does an incoming req see
system.mem_ctrls.wrQLenPdf::44                      0                       # What write queue length does an incoming req see
system.mem_ctrls.wrQLenPdf::45                      0                       # What write queue length does an incoming req see
system.mem_ctrls.wrQLenPdf::46                      0                       # What write queue length does an incoming req see
system.mem_ctrls.wrQLenPdf::47                      0                       # What write queue length does an incoming req see
system.mem_ctrls.wrQLenPdf::48                      0                       # What write queue length does an incoming req see
system.mem_ctrls.wrQLenPdf::49                      0                       # What write queue length does an incoming req see
system.mem_ctrls.wrQLenPdf::50                      0                       # What write queue length does an incoming req see
system.mem_ctrls.wrQLenPdf::51                      0                       # What write queue length does an incoming req see
system.mem_ctrls.wrQLenPdf::52                      0                       # What write queue length does an incoming req see
system.mem_ctrls.wrQLenPdf::53                      0                       # What write queue length does an incoming req see
system.mem_ctrls.wrQLenPdf::54                      0                       # What write queue length does an incoming req see
system.mem_ctrls.wrQLenPdf::55                      0                       # What write queue length does an incoming req see
system.mem_ctrls.wrQLenPdf::56                      0                       # What write queue length does an incoming req see
system.mem_ctrls.wrQLenPdf::57                      0                       # What write queue length does an incoming req see
system.mem_ctrls.wrQLenPdf::58                      0                       # What write queue length does an incoming req see
system.mem_ctrls.wrQLenPdf::59                      0                       # What write queue length does an incoming req see
system.mem_ctrls.wrQLenPdf::60                      0                       # What write queue length does an incoming req see
system.mem_ctrls.wrQLenPdf::61                      0                       # What write queue length does an incoming req see
system.mem_ctrls.wrQLenPdf::62                      0                       # What write queue length does an incoming req see
system.mem_ctrls.wrQLenPdf::63                      0                       # What write queue length does an incoming req see
system.mem_ctrls.bytesPerActivate::samples        27060                       # Bytes accessed per row activation
system.mem_ctrls.bytesPerActivate::mean    604.471249                       # Bytes accessed per row activation
system.mem_ctrls.bytesPerActivate::gmean   457.841555                       # Bytes accessed per row activation
system.mem_ctrls.bytesPerActivate::stdev   351.026769                       # Bytes accessed per row activation
system.mem_ctrls.bytesPerActivate::0-127         2380      8.80%      8.80% # Bytes accessed per row activation
system.mem_ctrls.bytesPerActivate::128-255         3217     11.89%     20.68% # Bytes accessed per row activation
system.mem_ctrls.bytesPerActivate::256-383         1501      5.55%     26.23% # Bytes accessed per row activation
system.mem_ctrls.bytesPerActivate::384-511         1028      3.80%     30.03% # Bytes accessed per row activation
system.mem_ctrls.bytesPerActivate::512-639         8186     30.25%     60.28% # Bytes accessed per row activation
[...]
system.cpu.icache.tags.occ_percent::total     0.532150                       # Average percentage of cache occupancy
system.cpu.icache.tags.occ_task_id_blocks::1024          608                       # Occupied blocks per task id
system.cpu.icache.tags.age_task_id_blocks_1024::4          608                       # Occupied blocks per task id
system.cpu.icache.tags.occ_task_id_percent::1024     0.593750                       # Percentage of cache occupancy per task id
system.cpu.icache.tags.tag_accesses           3055690                       # Number of tag accesses
system.cpu.icache.tags.data_accesses          3055690                       # Number of data accesses
system.cpu.dtb.walker.pwrStateResidencyTicks::UNDEFINED  30052375000                       # Cumulative time (in ticks) in various power states
system.cpu.dtb.stage2_mmu.stage2_tlb.walker.pwrStateResidencyTicks::UNDEFINED  30052375000                       # Cumulative time (in ticks) in various power states
system.cpu.dcache.pwrStateResidencyTicks::UNDEFINED  30052375000                       # Cumulative time (in ticks) in various power states
system.cpu.dcache.demand_hits::.cpu.data      6876166                       # number of demand (read+write) hits
system.cpu.dcache.demand_hits::total          6876166                       # number of demand (read+write) hits
system.cpu.dcache.overall_hits::.cpu.data      6876257                       # number of overall hits
system.cpu.dcache.overall_hits::total         6876257                       # number of overall hits
system.cpu.dcache.demand_misses::.cpu.data       267607                       # number of demand (read+write) misses
system.cpu.dcache.demand_misses::total         267607                       # number of demand (read+write) misses
system.cpu.dcache.overall_misses::.cpu.data       269128                       # number of overall misses
system.cpu.dcache.overall_misses::total        269128                       # number of overall misses
system.cpu.dcache.demand_miss_latency::.cpu.data  23972296000                       # number of demand (read+write) miss cycles
system.cpu.dcache.demand_miss_latency::total  23972296000                       # number of demand (read+write) miss cycles
system.cpu.dcache.overall_miss_latency::.cpu.data  23972296000                       # number of overall miss cycles
system.cpu.dcache.overall_miss_latency::total  23972296000                       # number of overall miss cycles
system.cpu.dcache.demand_accesses::.cpu.data      7143773                       # number of demand (read+write) accesses
system.cpu.dcache.demand_accesses::total      7143773                       # number of demand (read+write) accesses
system.cpu.dcache.overall_accesses::.cpu.data      7145385                       # number of overall (read+write) accesses
system.cpu.dcache.overall_accesses::total      7145385                       # number of overall (read+write) accesses
system.cpu.dcache.demand_miss_rate::.cpu.data     0.037460                       # miss rate for demand accesses
system.cpu.dcache.demand_miss_rate::total     0.037460                       # miss rate for demand accesses
system.cpu.dcache.overall_miss_rate::.cpu.data     0.037665                       # miss rate for overall accesses
system.cpu.dcache.overall_miss_rate::total     0.037665                       # miss rate for overall accesses
system.cpu.dcache.demand_avg_miss_latency::.cpu.data 89580.227722                       # average overall miss latency
system.cpu.dcache.demand_avg_miss_latency::total 89580.227722                       # average overall miss latency
system.cpu.dcache.overall_avg_miss_latency::.cpu.data 89073.957373                       # average overall miss latency
system.cpu.dcache.overall_avg_miss_latency::total 89073.957373                       # average overall miss latency
system.cpu.dcache.blocked_cycles::no_mshrs          562                       # number of cycles access was blocked
system.cpu.dcache.blocked_cycles::no_targets            0                       # number of cycles access was blocked
system.cpu.dcache.blocked::no_mshrs                14                       # number of cycles access was blocked
system.cpu.dcache.blocked::no_targets               0                       # number of cycles access was blocked
system.cpu.dcache.avg_blocked_cycles::no_mshrs    40.142857                       # average number of cycles each access was blocked
system.cpu.dcache.avg_blocked_cycles::no_targets          nan                       # average number of cycles each access was blocked
system.cpu.dcache.writebacks::.writebacks       109668                       # number of writebacks
system.cpu.dcache.writebacks::total            109668                       # number of writebacks
system.cpu.dcache.demand_mshr_hits::.cpu.data        70425                       # number of demand (read+write) MSHR hits
system.cpu.dcache.demand_mshr_hits::total        70425                       # number of demand (read+write) MSHR hits
system.cpu.dcache.overall_mshr_hits::.cpu.data        70425                       # number of overall MSHR hits
system.cpu.dcache.overall_mshr_hits::total        70425                       # number of overall MSHR hits
system.cpu.dcache.demand_mshr_misses::.cpu.data       197182                       # number of demand (read+write) MSHR misses
system.cpu.dcache.demand_mshr_misses::total       197182                       # number of demand (read+write) MSHR misses
system.cpu.dcache.overall_mshr_misses::.cpu.data       198703                       # number of overall MSHR misses
system.cpu.dcache.overall_mshr_misses::total       198703                       # number of overall MSHR misses
system.cpu.dcache.demand_mshr_miss_latency::.cpu.data  19740215000                       # number of demand (read+write) MSHR miss cycles
system.cpu.dcache.demand_mshr_miss_latency::total  19740215000                       # number of demand (read+write) MSHR miss cycles
system.cpu.dcache.overall_mshr_miss_latency::.cpu.data  19893397999                       # number of overall MSHR miss cycles
system.cpu.dcache.overall_mshr_miss_latency::total  19893397999                       # number of overall MSHR miss cycles
system.cpu.dcache.demand_mshr_miss_rate::.cpu.data     0.027602                       # mshr miss rate for demand accesses
system.cpu.dcache.demand_mshr_miss_rate::total     0.027602                       # mshr miss rate for demand accesses
system.cpu.dcache.overall_mshr_miss_rate::.cpu.data     0.027809                       # mshr miss rate for overall accesses
system.cpu.dcache.overall_mshr_miss_rate::total     0.027809                       # mshr miss rate for overall accesses
system.cpu.dcache.demand_avg_mshr_miss_latency::.cpu.data 100111.648122                       # average overall mshr miss latency
system.cpu.dcache.demand_avg_mshr_miss_latency::total 100111.648122                       # average overall mshr miss latency
system.cpu.dcache.overall_avg_mshr_miss_latency::.cpu.data 100116.243836                       # average overall mshr miss latency
system.cpu.dcache.overall_avg_mshr_miss_latency::total 100116.243836                       # average overall mshr miss latency
system.cpu.dcache.replacements                 196656                       # number of replacements
system.cpu.dcache.ReadReq_hits::.cpu.data      5600032                       # number of ReadReq hits
system.cpu.dcache.ReadReq_hits::total         5600032                       # number of ReadReq hits
system.cpu.dcache.ReadReq_misses::.cpu.data        88224                       # number of ReadReq misses
system.cpu.dcache.ReadReq_misses::total         88224                       # number of ReadReq misses
system.cpu.dcache.ReadReq_miss_latency::.cpu.data   8776096000                       # number of ReadReq miss cycles
system.cpu.dcache.ReadReq_miss_latency::total   8776096000                       # number of ReadReq miss cycles
system.cpu.dcache.ReadReq_accesses::.cpu.data      5688256                       # number of ReadReq accesses(hits+misses)
system.cpu.dcache.ReadReq_accesses::total      5688256                       # number of ReadReq accesses(hits+misses)
system.cpu.dcache.ReadReq_miss_rate::.cpu.data     0.015510                       # miss rate for ReadReq accesses
system.cpu.dcache.ReadReq_miss_rate::total     0.015510                       # miss rate for ReadReq accesses
system.cpu.dcache.ReadReq_avg_miss_latency::.cpu.data 99475.154153                       # average ReadReq miss latency
system.cpu.dcache.ReadReq_avg_miss_latency::total 99475.154153                       # average ReadReq miss latency
system.cpu.dcache.ReadReq_mshr_hits::.cpu.data          790                       # number of ReadReq MSHR hits
system.cpu.dcache.ReadReq_mshr_hits::total          790                       # number of ReadReq MSHR hits
system.cpu.dcache.ReadReq_mshr_misses::.cpu.data        87434                       # number of ReadReq MSHR misses
system.cpu.dcache.ReadReq_mshr_misses::total        87434                       # number of ReadReq MSHR misses
system.cpu.dcache.ReadReq_mshr_miss_latency::.cpu.data   8519036000                       # number of ReadReq MSHR miss cycles
system.cpu.dcache.ReadReq_mshr_miss_latency::total   8519036000                       # number of ReadReq MSHR miss cycles
system.cpu.dcache.ReadReq_mshr_miss_rate::.cpu.data     0.015371                       # mshr miss rate for ReadReq accesses
system.cpu.dcache.ReadReq_mshr_miss_rate::total     0.015371                       # mshr miss rate for ReadReq accesses
system.cpu.dcache.ReadReq_avg_mshr_miss_latency::.cpu.data 97433.904431                       # average ReadReq mshr miss latency
system.cpu.dcache.ReadReq_avg_mshr_miss_latency::total 97433.904431                       # average ReadReq mshr miss latency
system.cpu.dcache.WriteReq_hits::.cpu.data      1276134                       # number of WriteReq hits
system.cpu.dcache.WriteReq_hits::total        1276134                       # number of WriteReq hits
system.cpu.dcache.WriteReq_misses::.cpu.data       179383                       # number of WriteReq misses
system.cpu.dcache.WriteReq_misses::total       179383                       # number of WriteReq misses
system.cpu.dcache.WriteReq_miss_latency::.cpu.data  15196200000                       # number of WriteReq miss cycles
system.cpu.dcache.WriteReq_miss_latency::total  15196200000                       # number of WriteReq miss cycles
system.cpu.dcache.WriteReq_accesses::.cpu.data      1455517                       # number of WriteReq accesses(hits+misses)
system.cpu.dcache.WriteReq_accesses::total      1455517                       # number of WriteReq accesses(hits+misses)
system.cpu.dcache.WriteReq_miss_rate::.cpu.data     0.123243                       # miss rate for WriteReq accesses
system.cpu.dcache.WriteReq_miss_rate::total     0.123243                       # miss rate for WriteReq accesses
system.cpu.dcache.WriteReq_avg_miss_latency::.cpu.data 84713.713117                       # average WriteReq miss latency
system.cpu.dcache.WriteReq_avg_miss_latency::total 84713.713117                       # average WriteReq miss latency
system.cpu.dcache.WriteReq_mshr_hits::.cpu.data        69635                       # number of WriteReq MSHR hits
system.cpu.dcache.WriteReq_mshr_hits::total        69635                       # number of WriteReq MSHR hits
system.cpu.dcache.WriteReq_mshr_misses::.cpu.data       109748                       # number of WriteReq MSHR misses
system.cpu.dcache.WriteReq_mshr_misses::total       109748                       # number of WriteReq MSHR misses
system.cpu.dcache.WriteReq_mshr_miss_latency::.cpu.data  11221179000                       # number of WriteReq MSHR miss cycles
system.cpu.dcache.WriteReq_mshr_miss_latency::total  11221179000                       # number of WriteReq MSHR miss cycles
system.cpu.dcache.WriteReq_mshr_miss_rate::.cpu.data     0.075401                       # mshr miss rate for WriteReq accesses
system.cpu.dcache.WriteReq_mshr_miss_rate::total     0.075401                       # mshr miss rate for WriteReq accesses
system.cpu.dcache.WriteReq_avg_mshr_miss_latency::.cpu.data 102244.952072                       # average WriteReq mshr miss latency
system.cpu.dcache.WriteReq_avg_mshr_miss_latency::total 102244.952072                       # average WriteReq mshr miss latency
system.cpu.dcache.SoftPFReq_hits::.cpu.data           91                       # number of SoftPFReq hits
system.cpu.dcache.SoftPFReq_hits::total            91                       # number of SoftPFReq hits
system.cpu.dcache.SoftPFReq_misses::.cpu.data         1521                       # number of SoftPFReq misses
system.cpu.dcache.SoftPFReq_misses::total         1521                       # number of SoftPFReq misses
system.cpu.dcache.SoftPFReq_accesses::.cpu.data         1612                       # number of SoftPFReq accesses(hits+misses)
system.cpu.dcache.SoftPFReq_accesses::total         1612                       # number of SoftPFReq accesses(hits+misses)
system.cpu.dcache.SoftPFReq_miss_rate::.cpu.data     0.943548                       # miss rate for SoftPFReq accesses
system.cpu.dcache.SoftPFReq_miss_rate::total     0.943548                       # miss rate for SoftPFReq accesses
system.cpu.dcache.SoftPFReq_mshr_misses::.cpu.data         1521                       # number of SoftPFReq MSHR misses
system.cpu.dcache.SoftPFReq_mshr_misses::total         1521                       # number of SoftPFReq MSHR misses
system.cpu.dcache.SoftPFReq_mshr_miss_latency::.cpu.data    153182999                       # number of SoftPFReq MSHR miss cycles
system.cpu.dcache.SoftPFReq_mshr_miss_latency::total    153182999                       # number of SoftPFReq MSHR miss cycles
system.cpu.dcache.SoftPFReq_mshr_miss_rate::.cpu.data     0.943548                       # mshr miss rate for SoftPFReq accesses
system.cpu.dcache.SoftPFReq_mshr_miss_rate::total     0.943548                       # mshr miss rate for SoftPFReq accesses
system.cpu.dcache.SoftPFReq_avg_mshr_miss_latency::.cpu.data 100712.030901                       # average SoftPFReq mshr miss latency
system.cpu.dcache.SoftPFReq_avg_mshr_miss_latency::total 100712.030901                       # average SoftPFReq mshr miss latency
system.cpu.dcache.LoadLockedReq_hits::.cpu.data           37                       # number of LoadLockedReq hits
system.cpu.dcache.LoadLockedReq_hits::total           37                       # number of LoadLockedReq hits
system.cpu.dcache.LoadLockedReq_misses::.cpu.data            1                       # number of LoadLockedReq misses
system.cpu.dcache.LoadLockedReq_misses::total            1                       # number of LoadLockedReq misses
system.cpu.dcache.LoadLockedReq_miss_latency::.cpu.data        95000                       # number of LoadLockedReq miss cycles
system.cpu.dcache.LoadLockedReq_miss_latency::total        95000                       # number of LoadLockedReq miss cycles
system.cpu.dcache.LoadLockedReq_accesses::.cpu.data           38                       # number of LoadLockedReq accesses(hits+misses)
system.cpu.dcache.LoadLockedReq_accesses::total           38                       # number of LoadLockedReq accesses(hits+misses)
system.cpu.dcache.LoadLockedReq_miss_rate::.cpu.data     0.026316                       # miss rate for LoadLockedReq accesses
system.cpu.dcache.LoadLockedReq_miss_rate::total     0.026316                       # miss rate for LoadLockedReq accesses
system.cpu.dcache.LoadLockedReq_avg_miss_latency::.cpu.data        95000                       # average LoadLockedReq miss latency
system.cpu.dcache.LoadLockedReq_avg_miss_latency::total        95000                       # average LoadLockedReq miss latency
system.cpu.dcache.LoadLockedReq_mshr_misses::.cpu.data            1                       # number of LoadLockedReq MSHR misses
system.cpu.dcache.LoadLockedReq_mshr_misses::total            1                       # number of LoadLockedReq MSHR misses
system.cpu.dcache.LoadLockedReq_mshr_miss_latency::.cpu.data        93000                       # number of LoadLockedReq MSHR miss cycles
system.cpu.dcache.LoadLockedReq_mshr_miss_latency::total        93000                       # number of LoadLockedReq MSHR miss cycles
system.cpu.dcache.LoadLockedReq_mshr_miss_rate::.cpu.data     0.026316                       # mshr miss rate for LoadLockedReq accesses
system.cpu.dcache.LoadLockedReq_mshr_miss_rate::total     0.026316                       # mshr miss rate for LoadLockedReq accesses
system.cpu.dcache.LoadLockedReq_avg_mshr_miss_latency::.cpu.data        93000                       # average LoadLockedReq mshr miss latency
system.cpu.dcache.LoadLockedReq_avg_mshr_miss_latency::total        93000                       # average LoadLockedReq mshr miss latency
system.cpu.dcache.StoreCondReq_hits::.cpu.data           38                       # number of StoreCondReq hits
system.cpu.dcache.StoreCondReq_hits::total           38                       # number of StoreCondReq hits
system.cpu.dcache.StoreCondReq_accesses::.cpu.data           38                       # number of StoreCondReq accesses(hits+misses)
system.cpu.dcache.StoreCondReq_accesses::total           38                       # number of StoreCondReq accesses(hits+misses)
system.cpu.dcache.tags.pwrStateResidencyTicks::UNDEFINED  30052375000                       # Cumulative time (in ticks) in various power states
system.cpu.dcache.tags.tagsinuse          1916.104903                       # Cycle average of tags in use
system.cpu.dcache.tags.total_refs             7075036                       # Total number of references to valid blocks.
system.cpu.dcache.tags.sampled_refs            198704                       # Sample count of references to valid blocks.
system.cpu.dcache.tags.avg_refs             35.605906                       # Average number of references to valid blocks.
system.cpu.dcache.tags.warmup_cycle            223000                       # Cycle when the warmup percentage was hit.
system.cpu.dcache.tags.occ_blocks::.cpu.data  1916.104903                       # Average occupied blocks per requestor
system.cpu.dcache.tags.occ_percent::.cpu.data     0.935598                       # Average percentage of cache occupancy
system.cpu.dcache.tags.occ_percent::total     0.935598                       # Average percentage of cache occupancy
system.cpu.dcache.tags.occ_task_id_blocks::1024         2048                       # Occupied blocks per task id
system.cpu.dcache.tags.age_task_id_blocks_1024::0            2                       # Occupied blocks per task id
system.cpu.dcache.tags.age_task_id_blocks_1024::1           19                       # Occupied blocks per task id
system.cpu.dcache.tags.age_task_id_blocks_1024::2          341                       # Occupied blocks per task id
system.cpu.dcache.tags.age_task_id_blocks_1024::3         1461                       # Occupied blocks per task id
system.cpu.dcache.tags.age_task_id_blocks_1024::4          225                       # Occupied blocks per task id
system.cpu.dcache.tags.occ_task_id_percent::1024            1                       # Percentage of cache occupancy per task id
system.cpu.dcache.tags.tag_accesses          14489626                       # Number of tag accesses
system.cpu.dcache.tags.data_accesses         14489626                       # Number of data accesses
system.cpu.itb.walker.pwrStateResidencyTicks::UNDEFINED  30052375000                       # Cumulative time (in ticks) in various power states
system.cpu.itb.stage2_mmu.stage2_tlb.walker.pwrStateResidencyTicks::UNDEFINED  30052375000                       # Cumulative time (in ticks) in various power states

---------- End Simulation Statistics   ----------
