
---------- Begin Simulation Statistics ----------
final_tick                                29918013000                       # Number of ticks from beginning of simulation (restored from checkpoints and never reset)
host_inst_rate                                 199886                       # Simulator instruction rate (inst/s)
host_mem_usage                                 694844                       # Number of bytes of host memory used
host_op_rate                                   283760                       # Simulator op (including micro ops) rate (op/s)
host_seconds                                    50.03                       # Real time elapsed on the host
host_tick_rate                              597993614                       # Simulator tick rate (ticks/s)
sim_freq                                 1000000000000                       # Frequency of simulated ticks
sim_insts                                    10000000                       # Number of instructions simulated
sim_ops                                      14196459                       # Number of ops (including micro ops) simulated
sim_seconds                                  0.029918                       # Number of seconds simulated
sim_ticks                                 29918013000                       # Number of ticks simulated
system.cpu.branchPred.BTBCorrect                    0                       # Number of correct BTB predictions (this stat may not work properly.
system.cpu.branchPred.BTBHitPct             99.531514                       # BTB Hit Percentage
system.cpu.branchPred.BTBHits                  561727                       # Number of BTB hits
system.cpu.branchPred.BTBLookups               564371                       # Number of BTB lookups
system.cpu.branchPred.RASInCorrect                  5                       # Number of incorrect RAS predictions.
system.cpu.branchPred.condIncorrect               927                       # Number of conditional branches incorrect
system.cpu.branchPred.condPredicted            561012                       # Number of conditional branches predicted
system.cpu.branchPred.indirectHits                 14                       # Number of indirect target hits.
system.cpu.branchPred.indirectLookups             125                       # Number of indirect predictor lookups.
system.cpu.branchPred.indirectMisses              111                       # Number of indirect misses.
system.cpu.branchPred.lookups                  567845                       # Number of BP lookups
system.cpu.branchPred.usedRAS                    2298                       # Number of times the RAS was used to get a target.
system.cpu.branchPredindirectMispredicted           50                       # Number of mispredicted indirect branches.
system.cpu.committedInsts                    10000000                       # Number of instructions committed
system.cpu.committedOps                      14196459                       # Number of ops (including micro ops) committed
system.cpu.cpi                               2.991801                       # CPI: cycles per instruction
system.cpu.discardedOps                          2861                       # Number of ops (including micro ops) which were discarded before commit
system.cpu.dtb.accesses                             0                       # DTB accesses
system.cpu.dtb.align_faults                         0                       # Number of TLB faults due to alignment restrictions
system.cpu.dtb.domain_faults                        0                       # Number of TLB faults due to domain restrictions
system.cpu.dtb.flush_entries                        0                       # Number of entries that have been flushed from TLB
system.cpu.dtb.flush_tlb                            0                       # Number of times complete TLB was flushed
system.cpu.dtb.flush_tlb_asid                       0                       # Number of times TLB was flushed by ASID
system.cpu.dtb.flush_tlb_mva                        0                       # Number of times TLB was flushed by MVA
system.cpu.dtb.flush_tlb_mva_asid                   0                       # Number of times TLB was flushed by MVA & ASID
system.cpu.dtb.hits                                 0                       # DTB hits
system.cpu.dtb.inst_accesses                        0                       # ITB inst accesses
system.cpu.dtb.inst_hits                            0                       # ITB inst hits
system.cpu.dtb.inst_misses                          0                       # ITB inst misses
system.cpu.dtb.misses                               0                       # DTB misses
system.cpu.dtb.perms_faults                         0                       # Number of TLB faults due to permissions restrictions
system.cpu.dtb.prefetch_faults                      0                       # Number of TLB faults due to prefetch
system.cpu.dtb.read_accesses                        0                       # DTB read accesses
system.cpu.dtb.read_hits                            0                       # DTB read hits
system.cpu.dtb.read_misses                          0                       # DTB read misses
system.cpu.dtb.stage2_mmu.stage2_tlb.accesses            0                       # DTB accesses
system.cpu.dtb.stage2_mmu.stage2_tlb.align_faults            0                       # Number of TLB faults due to alignment restrictions
system.cpu.dtb.stage2_mmu.stage2_tlb.domain_faults            0                       # Number of TLB faults due to domain restrictions
system.cpu.dtb.stage2_mmu.stage2_tlb.flush_entries            0                       # Number of entries that have been flushed from TLB
system.cpu.dtb.stage2_mmu.stage2_tlb.flush_tlb            0                       # Number of times complete TLB was flushed
system.cpu.dtb.stage2_mmu.stage2_tlb.flush_tlb_asid            0                       # Number of times TLB was flushed by ASID
system.cpu.dtb.stage2_mmu.stage2_tlb.flush_tlb_mva            0                       # Number of times TLB was flushed by MVA
system.cpu.dtb.stage2_mmu.stage2_tlb.flush_tlb_mva_asid            0                       # Number of times TLB was flushed by MVA & ASID
system.cpu.dtb.stage2_mmu.stage2_tlb.hits            0                       # DTB hits
system.cpu.dtb.stage2_mmu.stage2_tlb.inst_accesses            0                       # ITB inst accesses
system.cpu.dtb.stage2_mmu.stage2_tlb.inst_hits            0                       # ITB inst hits
system.cpu.dtb.stage2_mmu.stage2_tlb.inst_misses            0                       # ITB inst misses
system.cpu.dtb.stage2_mmu.stage2_tlb.misses            0                       # DTB misses
system.cpu.dtb.stage2_mmu.stage2_tlb.perms_faults            0                       # Number of TLB faults due to permissions restrictions
system.cpu.dtb.stage2_mmu.stage2_tlb.prefetch_faults            0                       # Number of TLB faults due to prefetch
system.cpu.dtb.stage2_mmu.stage2_tlb.read_accesses            0                       # DTB read accesses
system.cpu.dtb.stage2_mmu.stage2_tlb.read_hits            0                       # DTB read hits
system.cpu.dtb.stage2_mmu.stage2_tlb.read_misses            0                       # DTB read misses
system.cpu.dtb.stage2_mmu.stage2_tlb.walker.walkRequestOrigin_Requested::Data            0                       # Table walker requests started/completed, data/inst
system.cpu.dtb.stage2_mmu.stage2_tlb.walker.walkRequestOrigin_Requested::Inst            0                       # Table walker requests started/completed, data/inst
system.cpu.dtb.stage2_mmu.stage2_tlb.walker.walkRequestOrigin_Requested::total            0                       # Table walker requests started/completed, data/inst
system.cpu.dtb.stage2_mmu.stage2_tlb.walker.walkRequestOrigin_Completed::Data            0                       # Table walker requests started/completed, data/inst
system.cpu.dtb.stage2_mmu.stage2_tlb.walker.walkRequestOrigin_Completed::Inst            0                       # Table walker requests started/completed, data/inst
system.cpu.dtb.stage2_mmu.stage2_tlb.walker.walkRequestOrigin_Completed::total            0                       # Table walker requests started/completed, data/inst
system.cpu.dtb.stage2_mmu.stage2_tlb.walker.walkRequestOrigin::total            0                       # Table walker requests started/completed, data/inst
system.cpu.dtb.stage2_mmu.stage2_tlb.walker.walks            0                       # Table walker walks requested
system.cpu.dtb.stage2_mmu.stage2_tlb.write_accesses            0                       # DTB write accesses
system.cpu.dtb.stage2_mmu.stage2_tlb.write_hits            0                       # DTB write hits
system.cpu.dtb.stage2_mmu.stage2_tlb.write_misses            0                       # DTB write misses
system.cpu.dtb.walker.walkRequestOrigin_Requested::Data            0                       # Table walker requests started/completed, data/inst
system.cpu.dtb.walker.walkRequestOrigin_Requested::Inst            0                       # Table walker requests started/completed, data/inst
system.cpu.dtb.walker.walkRequestOrigin_Requested::total            0                       # Table walker requests started/completed, data/inst
system.cpu.dtb.walker.walkRequestOrigin_Completed::Data            0                       # Table walker requests started/completed, data/inst
system.cpu.dtb.walker.walkRequestOrigin_Completed::Inst            0                       # Table walker requests started/completed, data/inst
system.cpu.dtb.walker.walkRequestOrigin_Completed::total            0                       # Table walker requests started/completed, data/inst
system.cpu.dtb.walker.walkRequestOrigin::total            0                       # Table walker requests started/completed, data/inst
system.cpu.dtb.walker.walks                         0                       # Table walker walks requested
system.cpu.dtb.write_accesses                       0                       # DTB write accesses
system.cpu.dtb.write_hits                           0                       # DTB write hits
system.cpu.dtb.write_misses                         0                       # DTB write misses
system.cpu.fetch2.amo_instructions                  0                       # Number of memory atomic instructions successfully decoded
system.cpu.fetch2.fp_instructions                   0                       # Number of floating point instructions successfully decoded
system.cpu.fetch2.int_instructions            4891156                       # Number of integer instructions successfully decoded
system.cpu.fetch2.load_instructions           2075593                       # Number of memory load instructions successfully decoded
system.cpu.fetch2.store_instructions           166815                       # Number of memory store instructions successfully decoded
system.cpu.fetch2.vec_instructions                  0                       # Number of SIMD instructions successfully decoded
system.cpu.idleCycles                        13823897                       # Total number of cycles that the object has spent stopped
system.cpu.ipc                               0.334247                       # IPC: instructions per cycle
system.cpu.itb.accesses                             0                       # DTB accesses
system.cpu.itb.align_faults                         0                       # Number of TLB faults due to alignment restrictions
system.cpu.itb.domain_faults                        0                       # Number of TLB faults due to domain restrictions
system.cpu.itb.flush_entries                        0                       # Number of entries that have been flushed from TLB
system.cpu.itb.flush_tlb                            0                       # Number of times complete TLB was flushed
system.cpu.itb.flush_tlb_asid                       0                       # Number of times TLB was flushed by ASID
system.cpu.itb.flush_tlb_mva                        0                       # Number of times TLB was flushed by MVA
system.cpu.itb.flush_tlb_mva_asid                   0                       # Number of times TLB was flushed by MVA & ASID
system.cpu.itb.hits                                 0                       # DTB hits
system.cpu.itb.inst_accesses                        0                       # ITB inst accesses
system.cpu.itb.inst_hits                            0                       # ITB inst hits
system.cpu.itb.inst_misses                          0                       # ITB inst misses
system.cpu.itb.misses                               0                       # DTB misses
system.cpu.itb.perms_faults                         0                       # Number of TLB faults due to permissions restrictions
system.cpu.itb.prefetch_faults                      0                       # Number of TLB faults due to prefetch
system.cpu.itb.read_accesses                        0                       # DTB read accesses
system.cpu.itb.read_hits                            0                       # DTB read hits
system.cpu.itb.read_misses                          0                       # DTB read misses
system.cpu.itb.stage2_mmu.stage2_tlb.accesses            0                       # DTB accesses
system.cpu.itb.stage2_mmu.stage2_tlb.align_faults            0                       # Number of TLB faults due to alignment restrictions
system.cpu.itb.stage2_mmu.stage2_tlb.domain_faults            0                       # Number of TLB faults due to domain restrictions
system.cpu.itb.stage2_mmu.stage2_tlb.flush_entries            0                       # Number of entries that have been flushed from TLB
system.cpu.itb.stage2_mmu.stage2_tlb.flush_tlb            0                       # Number of times complete TLB was flushed
system.cpu.itb.stage2_mmu.stage2_tlb.flush_tlb_asid            0                       # Number of times TLB was flushed by ASID
system.cpu.itb.stage2_mmu.stage2_tlb.flush_tlb_mva            0                       # Number of times TLB was flushed by MVA
system.cpu.itb.stage2_mmu.stage2_tlb.flush_tlb_mva_asid            0                       # Number of times TLB was flushed by MVA & ASID
system.cpu.itb.stage2_mmu.stage2_tlb.hits            0                       # DTB hits
system.cpu.itb.stage2_mmu.stage2_tlb.inst_accesses            0                       # ITB inst accesses
system.cpu.itb.stage2_mmu.stage2_tlb.inst_hits            0                       # ITB inst hits
system.cpu.itb.stage2_mmu.stage2_tlb.inst_misses            0                       # ITB inst misses
system.cpu.itb.stage2_mmu.stage2_tlb.misses            0                       # DTB misses
system.cpu.itb.stage2_mmu.stage2_tlb.perms_faults            0                       # Number of TLB faults due to permissions restrictions
system.cpu.itb.stage2_mmu.stage2_tlb.prefetch_faults            0                       # Number of TLB faults due to prefetch
system.cpu.itb.stage2_mmu.stage2_tlb.read_accesses            0                       # DTB read accesses
system.cpu.itb.stage2_mmu.stage2_tlb.read_hits            0                       # DTB read hits
system.cpu.itb.stage2_mmu.stage2_tlb.read_misses            0                       # DTB read misses
system.cpu.itb.stage2_mmu.stage2_tlb.walker.walkRequestOrigin_Requested::Data            0                       # Table walker requests started/completed, data/inst
system.cpu.itb.stage2_mmu.stage2_tlb.walker.walkRequestOrigin_Requested::Inst            0                       # Table walker requests started/completed, data/inst
system.cpu.itb.stage2_mmu.stage2_tlb.walker.walkRequestOrigin_Requested::total            0                       # Table walker requests started/completed, data/inst
system.cpu.itb.stage2_mmu.stage2_tlb.walker.walkRequestOrigin_Completed::Data            0                       # Table walker requests started/completed, data/inst
system.cpu.itb.stage2_mmu.stage2_tlb.walker.walkRequestOrigin_Completed::Inst            0                       # Table walker requests started/completed, data/inst
system.cpu.itb.stage2_mmu.stage2_tlb.walker.walkRequestOrigin_Completed::total            0                       # Table walker requests started/completed, data/inst
system.cpu.itb.stage2_mmu.stage2_tlb.walker.walkRequestOrigin::total            0                       # Table walker requests started/completed, data/inst
system.cpu.itb.stage2_mmu.stage2_tlb.walker.walks            0                       # Table walker walks requested
system.cpu.itb.stage2_mmu.stage2_tlb.write_accesses            0                       # DTB write accesses
system.cpu.itb.stage2_mmu.stage2_tlb.write_hits            0                       # DTB write hits
system.cpu.itb.stage2_mmu.stage2_tlb.write_misses            0                       # DTB write misses
system.cpu.itb.walker.walkRequestOrigin_Requested::Data            0                       # Table walker requests started/completed, data/inst
system.cpu.itb.walker.walkRequestOrigin_Requested::Inst            0                       # Table walker requests started/completed, data/inst
system.cpu.itb.walker.walkRequestOrigin_Requested::total            0                       # Table walker requests started/completed, data/inst
system.cpu.itb.walker.walkRequestOrigin_Completed::Data            0                       # Table walker requests started/completed, data/inst
system.cpu.itb.walker.walkRequestOrigin_Completed::Inst            0                       # Table walker requests started/completed, data/inst
system.cpu.itb.walker.walkRequestOrigin_Completed::total            0                       # Table walker requests started/completed, data/inst
system.cpu.itb.walker.walkRequestOrigin::total            0                       # Table walker requests started/completed, data/inst
system.cpu.itb.walker.walks                         0                       # Table walker walks requested
system.cpu.itb.write_accesses                       0                       # DTB write accesses
system.cpu.itb.write_hits                           0                       # DTB write hits
system.cpu.itb.write_misses                         0                       # DTB write misses
system.cpu.numCycles                         29918013                       # number of cpu cycles simulated
system.cpu.numFetchSuspends                         0                       # Number of times Execute suspended instruction fetching
system.cpu.numWorkItemsCompleted                    0                       # number of work items this cpu completed
system.cpu.numWorkItemsStarted                      0                       # number of work items this cpu started
system.cpu.op_class_0::No_OpClass                   0      0.00%      0.00% # Class of committed instruction
system.cpu.op_class_0::IntAlu                 7650229     53.89%     53.89% # Class of committed instruction
system.cpu.op_class_0::IntMult                 114597      0.81%     54.70% # Class of committed instruction
system.cpu.op_class_0::IntDiv                       0      0.00%     54.70% # Class of committed instruction
system.cpu.op_class_0::FloatAdd                     0      0.00%     54.70% # Class of committed instruction
system.cpu.op_class_0::FloatCmp                     0      0.00%     54.70% # Class of committed instruction
system.cpu.op_class_0::FloatCvt                     0      0.00%     54.70% # Class of committed instruction
system.cpu.op_class_0::FloatMult                    0      0.00%     54.70% # Class of committed instruction
system.cpu.op_class_0::FloatMultAcc                 0      0.00%     54.70% # Class of committed instruction
system.cpu.op_class_0::FloatDiv                     0      0.00%     54.70% # Class of committed instruction
system.cpu.op_class_0::FloatMisc                    0      0.00%     54.70% # Class of committed instruction
system.cpu.op_class_0::FloatSqrt                    0      0.00%     54.70% # Class of committed instruction
system.cpu.op_class_0::SimdAdd                      0      0.00%     54.70% # Class of committed instruction
system.cpu.op_class_0::SimdAddAcc                   0      0.00%     54.70% # Class of committed instruction
system.cpu.op_class_0::SimdAlu                      0      0.00%     54.70% # Class of committed instruction
system.cpu.op_class_0::SimdCmp                      0      0.00%     54.70% # Class of committed instruction
system.cpu.op_class_0::SimdCvt                      0      0.00%     54.70% # Class of committed instruction
system.cpu.op_class_0::SimdMisc                     0      0.00%     54.70% # Class of committed instruction
system.cpu.op_class_0::SimdMult                     0      0.00%     54.70% # Class of committed instruction
system.cpu.op_class_0::SimdMultAcc                  0      0.00%     54.70% # Class of committed instruction
system.cpu.op_class_0::SimdShift                    0      0.00%     54.70% # Class of committed instruction
system.cpu.op_class_0::SimdShiftAcc                 0      0.00%     54.70% # Class of committed instruction
system.cpu.op_class_0::SimdDiv                      0      0.00%     54.70% # Class of committed instruction
system.cpu.op_class_0::SimdSqrt                     0      0.00%     54.70% # Class of committed instruction
system.cpu.op_class_0::SimdFloatAdd                 0      0.00%     54.70% # Class of committed instruction
system.cpu.op_class_0::SimdFloatAlu                 0      0.00%     54.70% # Class of committed instruction
system.cpu.op_class_0::SimdFloatCmp                 0      0.00%     54.70% # Class of committed instruction
system.cpu.op_class_0::SimdFloatCvt                 0      0.00%     54.70% # Class of committed instruction
system.cpu.op_class_0::SimdFloatDiv                 0      0.00%     54.70% # Class of committed instruction
system.cpu.op_class_0::SimdFloatMisc               17      0.00%     54.70% # Class of committed instruction
system.cpu.op_class_0::SimdFloatMult                0      0.00%     54.70% # Class of committed instruction
system.cpu.op_class_0::SimdFloatMultAcc             0      0.00%     54.70% # Class of committed instruction
system.cpu.op_class_0::SimdFloatSqrt                0      0.00%     54.70% # Class of committed instruction
system.cpu.op_class_0::SimdReduceAdd                0      0.00%     54.70% # Class of committed instruction
system.cpu.op_class_0::SimdReduceAlu                0      0.00%     54.70% # Class of committed instruction
system.cpu.op_class_0::SimdReduceCmp                0      0.00%     54.70% # Class of committed instruction
system.cpu.op_class_0::SimdFloatReduceAdd            0      0.00%     54.70% # Class of committed instruction
system.cpu.op_class_0::SimdFloatReduceCmp            0      0.00%     54.70% # Class of committed instruction
system.cpu.op_class_0::SimdAes                      0      0.00%     54.70% # Class of committed instruction
system.cpu.op_class_0::SimdAesMix                   0      0.00%     54.70% # Class of committed instruction
system.cpu.op_class_0::SimdSha1Hash                 0      0.00%     54.70% # Class of committed instruction
system.cpu.op_class_0::SimdSha1Hash2                0      0.00%     54.70% # Class of committed instruction
system.cpu.op_class_0::SimdSha256Hash               0      0.00%     54.70% # Class of committed instruction
system.cpu.op_class_0::SimdSha256Hash2              0      0.00%     54.70% # Class of committed instruction
system.cpu.op_class_0::SimdShaSigma2                0      0.00%     54.70% # Class of committed instruction
system.cpu.op_class_0::SimdShaSigma3                0      0.00%     54.70% # Class of committed instruction
system.cpu.op_class_0::SimdPredAlu                  0      0.00%     54.70% # Class of committed instruction
system.cpu.op_class_0::MemRead                2073895     14.61%     69.30% # Class of committed instruction
system.cpu.op_class_0::MemWrite               4357721     30.70%    100.00% # Class of committed instruction
system.cpu.op_class_0::FloatMemRead                 0      0.00%    100.00% # Class of committed instruction
system.cpu.op_class_0::FloatMemWrite                0      0.00%    100.00% # Class of committed instruction
system.cpu.op_class_0::IprAccess                    0      0.00%    100.00% # Class of committed instruction
system.cpu.op_class_0::InstPrefetch                 0      0.00%    100.00% # Class of committed instruction
system.cpu.op_class_0::total                 14196459                       # Class of committed instruction
system.cpu.tickCycles                        16094116                       # Number of cycles that the object actually ticked
system.cpu.workload.numSyscalls                    11                       # Number of system calls
system.membus.snoop_filter.hit_multi_requests            0                       # Number of requests hitting in the snoop filter with multiple (>1) holders of the requested data.
system.membus.snoop_filter.hit_multi_snoops            0                       # Number of snoops hitting in the snoop filter with multiple (>1) holders of the requested data.
system.membus.snoop_filter.hit_single_requests        99704                       # Number of requests hitting in the snoop filter with a single holder of the requested data.
system.membus.snoop_filter.hit_single_snoops            0                       # Number of snoops hitting in the snoop filter with a single holder of the requested data.
system.membus.snoop_filter.tot_requests        232388                       # Total number of requests made to the snoop filter.
system.membus.snoop_filter.tot_snoops               0                       # Total number of snoops made to the snoop filter.
system.tol2bus.snoop_filter.hit_multi_requests           37                       # Number of requests hitting in the snoop filter with multiple (>1) holders of the requested data.
system.tol2bus.snoop_filter.hit_multi_snoops            0                       # Number of snoops hitting in the snoop filter with multiple (>1) holders of the requested data.
system.tol2bus.snoop_filter.hit_single_requests       131546                       # Number of requests hitting in the snoop filter with a single holder of the requested data.
system.tol2bus.snoop_filter.hit_single_snoops          212                       # Number of snoops hitting in the snoop filter with a single holder of the requested data.
system.tol2bus.snoop_filter.tot_requests       264328                       # Total number of requests made to the snoop filter.
system.tol2bus.snoop_filter.tot_snoops            212                       # Total number of snoops made to the snoop filter.
system.membus.pwrStateResidencyTicks::UNDEFINED  29918013000                       # Cumulative time (in ticks) in various power states
system.membus.trans_dist::ReadResp                369                       # Transaction distribution
system.membus.trans_dist::WritebackDirty        99557                       # Transaction distribution
system.membus.trans_dist::CleanEvict              147                       # Transaction distribution
system.membus.trans_dist::ReadExReq            132315                       # Transaction distribution
system.membus.trans_dist::ReadExResp           132315                       # Transaction distribution
system.membus.trans_dist::ReadSharedReq           369                       # Transaction distribution
system.membus.pkt_count_system.l2.mem_side::system.mem_ctrls.port       365072                       # Packet count per connected master and slave (bytes)
system.membus.pkt_count::total                 365072                       # Packet count per connected master and slave (bytes)
system.membus.pkt_size_system.l2.mem_side::system.mem_ctrls.port     29726848                       # Cumulative packet size per connected master and slave (bytes)
system.membus.pkt_size::total                29726848                       # Cumulative packet size per connected master and slave (bytes)
system.membus.snoops                                0                       # Total snoops (count)
system.membus.snoopTraffic                          0                       # Total snoop traffic (bytes)
system.membus.snoop_fanout::samples            132684                       # Request fanout histogram
system.membus.snoop_fanout::mean                    0                       # Request fanout histogram
system.membus.snoop_fanout::stdev                   0                       # Request fanout histogram
system.membus.snoop_fanout::underflows              0      0.00%      0.00% # Request fanout histogram
system.membus.snoop_fanout::0                  132684    100.00%    100.00% # Request fanout histogram
system.membus.snoop_fanout::1                       0      0.00%    100.00% # Request fanout histogram
system.membus.snoop_fanout::overflows               0      0.00%    100.00% # Request fanout histogram
system.membus.snoop_fanout::min_value               0                       # Request fanout histogram
system.membus.snoop_fanout::max_value               0                       # Request fanout histogram
system.membus.snoop_fanout::total              132684                       # Request fanout histogram
system.membus.respLayer1.occupancy         1231291500                       # Layer occupancy (ticks)
system.membus.respLayer1.utilization              4.1                       # Layer utilization (%)
system.membus.reqLayer0.occupancy          1028844000                       # Layer occupancy (ticks)
system.membus.reqLayer0.utilization               3.4                       # Layer utilization (%)
system.tol2bus.pwrStateResidencyTicks::UNDEFINED  29918013000                       # Cumulative time (in ticks) in various power states
system.tol2bus.trans_dist::ReadResp               461                       # Transaction distribution
system.tol2bus.trans_dist::WritebackDirty       230874                       # Transaction distribution
system.tol2bus.trans_dist::WritebackClean          117                       # Transaction distribution
system.tol2bus.trans_dist::CleanEvict             471                       # Transaction distribution
system.tol2bus.trans_dist::ReadExReq           132321                       # Transaction distribution
system.tol2bus.trans_dist::ReadExResp          132321                       # Transaction distribution
system.tol2bus.trans_dist::ReadCleanReq           329                       # Transaction distribution
system.tol2bus.trans_dist::ReadSharedReq          132                       # Transaction distribution
system.tol2bus.pkt_count_system.cpu.icache.mem_side::system.l2.cpu_side          775                       # Packet count per connected master and slave (bytes)
system.tol2bus.pkt_count_system.cpu.dcache.mem_side::system.l2.cpu_side       396335                       # Packet count per connected master and slave (bytes)
system.tol2bus.pkt_count::total                397110                       # Packet count per connected master and slave (bytes)
system.tol2bus.pkt_size_system.cpu.icache.mem_side::system.l2.cpu_side        57088                       # Cumulative packet size per connected master and slave (bytes)
system.tol2bus.pkt_size_system.cpu.dcache.mem_side::system.l2.cpu_side     33762560                       # Cumulative packet size per connected master and slave (bytes)
system.tol2bus.pkt_size::total               33819648                       # Cumulative packet size per connected master and slave (bytes)
system.tol2bus.snoops                           99916                       # Total snoops (count)
system.tol2bus.snoopTraffic                  12743296                       # Total snoop traffic (bytes)
system.tol2bus.snoop_fanout::samples           232698                       # Request fanout histogram
system.tol2bus.snoop_fanout::mean            0.001070                       # Request fanout histogram
system.tol2bus.snoop_fanout::stdev           0.032694                       # Request fanout histogram
system.tol2bus.snoop_fanout::underflows             0      0.00%      0.00% # Request fanout histogram
system.tol2bus.snoop_fanout::0                 232449     99.89%     99.89% # Request fanout histogram
system.tol2bus.snoop_fanout::1                    249      0.11%    100.00% # Request fanout histogram
system.tol2bus.snoop_fanout::2                      0      0.00%    100.00% # Request fanout histogram
system.tol2bus.snoop_fanout::overflows              0      0.00%    100.00% # Request fanout histogram
system.tol2bus.snoop_fanout::min_value              0                       # Request fanout histogram
system.tol2bus.snoop_fanout::max_value              1                       # Request fanout histogram
system.tol2bus.snoop_fanout::total             232698                       # Request fanout histogram
system.tol2bus.reqLayer0.occupancy          790064000                       # Layer occupancy (ticks)
system.tol2bus.reqLayer0.utilization              2.6                       # Layer utilization (%)
system.tol2bus.respLayer1.occupancy         662271993                       # Layer occupancy (ticks)
system.tol2bus.respLayer1.utilization             2.2                       # Layer utilization (%)
system.tol2bus.respLayer0.occupancy           1645000                       # Layer occupancy (ticks)
system.tol2bus.respLayer0.utilization             0.0                       # Layer utilization (%)
system.voltage_domain.voltage                       1                       # Voltage in Volts
system.clk_domain.clock                          1000                       # Clock period in ticks
system.l2.pwrStateResidencyTicks::UNDEFINED  29918013000                       # Cumulative time (in ticks) in various power states
system.l2.demand_hits::.cpu.inst                   52                       # number of demand (read+write) hits
system.l2.demand_hits::.cpu.data                   39                       # number of demand (read+write) hits
system.l2.demand_hits::total                       91                       # number of demand (read+write) hits
system.l2.overall_hits::.cpu.inst                  52                       # number of overall hits
system.l2.overall_hits::.cpu.data                  39                       # number of overall hits
system.l2.overall_hits::total                      91                       # number of overall hits
system.l2.demand_misses::.cpu.inst                277                       # number of demand (read+write) misses
system.l2.demand_misses::.cpu.data             132414                       # number of demand (read+write) misses
system.l2.demand_misses::total                 132691                       # number of demand (read+write) misses
system.l2.overall_misses::.cpu.inst               277                       # number of overall misses
system.l2.overall_misses::.cpu.data            132414                       # number of overall misses
system.l2.overall_misses::total                132691                       # number of overall misses
system.l2.demand_miss_latency::.cpu.inst     29013000                       # number of demand (read+write) miss cycles
system.l2.demand_miss_latency::.cpu.data  14653176000                       # number of demand (read+write) miss cycles
system.l2.demand_miss_latency::total      14682189000                       # number of demand (read+write) miss cycles
system.l2.overall_miss_latency::.cpu.inst     29013000                       # number of overall miss cycles
system.l2.overall_miss_latency::.cpu.data  14653176000                       # number of overall miss cycles
system.l2.overall_miss_latency::total     14682189000                       # number of overall miss cycles
system.l2.demand_accesses::.cpu.inst              329                       # number of demand (read+write) accesses
system.l2.demand_accesses::.cpu.data           132453                       # number of demand (read+write) accesses
system.l2.demand_accesses::total               132782                       # number of demand (read+write) accesses
system.l2.overall_accesses::.cpu.inst             329                       # number of overall (read+write) accesses
system.l2.overall_accesses::.cpu.data          132453                       # number of overall (read+write) accesses
system.l2.overall_accesses::total              132782                       # number of overall (read+write) accesses
system.l2.demand_miss_rate::.cpu.inst        0.841945                       # miss rate for demand accesses
system.l2.demand_miss_rate::.cpu.data        0.999706                       # miss rate for demand accesses
system.l2.demand_miss_rate::total            0.999315                       # miss rate for demand accesses
system.l2.overall_miss_rate::.cpu.inst       0.841945                       # miss rate for overall accesses
system.l2.overall_miss_rate::.cpu.data       0.999706                       # miss rate for overall accesses
system.l2.overall_miss_rate::total           0.999315                       # miss rate for overall accesses
system.l2.demand_avg_miss_latency::.cpu.inst 104740.072202                       # average overall miss latency
system.l2.demand_avg_miss_latency::.cpu.data 110661.833341                       # average overall miss latency
system.l2.demand_avg_miss_latency::total 110649.471328                       # average overall miss latency
system.l2.overall_avg_miss_latency::.cpu.inst 104740.072202                       # average overall miss latency
system.l2.overall_avg_miss_latency::.cpu.data 110661.833341                       # average overall miss latency
system.l2.overall_avg_miss_latency::total 110649.471328                       # average overall miss latency
system.l2.blocked_cycles::no_mshrs                  0                       # number of cycles access was blocked
system.l2.blocked_cycles::no_targets                0                       # number of cycles access was blocked
system.l2.blocked::no_mshrs                         0                       # number of cycles access was blocked
system.l2.blocked::no_targets                       0                       # number of cycles access was blocked
system.l2.avg_blocked_cycles::no_mshrs            nan                       # average number of cycles each access was blocked
system.l2.avg_blocked_cycles::no_targets          nan                       # average number of cycles each access was blocked
system.l2.writebacks::.writebacks               99557                       # number of writebacks
system.l2.writebacks::total                     99557                       # number of writebacks
system.l2.demand_mshr_hits::.cpu.data               7                       # number of demand (read+write) MSHR hits
system.l2.demand_mshr_hits::total                   7                       # number of demand (read+write) MSHR hits
system.l2.overall_mshr_hits::.cpu.data              7                       # number of overall MSHR hits
system.l2.overall_mshr_hits::total                  7                       # number of overall MSHR hits
system.l2.demand_mshr_misses::.cpu.inst           277                       # number of demand (read+write) MSHR misses
system.l2.demand_mshr_misses::.cpu.data        132407                       # number of demand (read+write) MSHR misses
system.l2.demand_mshr_misses::total            132684                       # number of demand (read+write) MSHR misses
system.l2.overall_mshr_misses::.cpu.inst          277                       # number of overall MSHR misses
system.l2.overall_mshr_misses::.cpu.data       132407                       # number of overall MSHR misses
system.l2.overall_mshr_misses::total           132684                       # number of overall MSHR misses
system.l2.demand_mshr_miss_latency::.cpu.inst     23473000                       # number of demand (read+write) MSHR miss cycles
system.l2.demand_mshr_miss_latency::.cpu.data  12004468000                       # number of demand (read+write) MSHR miss cycles
system.l2.demand_mshr_miss_latency::total  12027941000                       # number of demand (read+write) MSHR miss cycles
system.l2.overall_mshr_miss_latency::.cpu.inst     23473000                       # number of overall MSHR miss cycles
system.l2.overall_mshr_miss_latency::.cpu.data  12004468000                       # number of overall MSHR miss cycles
system.l2.overall_mshr_miss_latency::total  12027941000                       # number of overall MSHR miss cycles
system.l2.demand_mshr_miss_rate::.cpu.inst     0.841945                       # mshr miss rate for demand accesses
system.l2.demand_mshr_miss_rate::.cpu.data     0.999653                       # mshr miss rate for demand accesses
system.l2.demand_mshr_miss_rate::total       0.999262                       # mshr miss rate for demand accesses
system.l2.overall_mshr_miss_rate::.cpu.inst     0.841945                       # mshr miss rate for overall accesses
system.l2.overall_mshr_miss_rate::.cpu.data     0.999653                       # mshr miss rate for overall accesses
system.l2.overall_mshr_miss_rate::total      0.999262                       # mshr miss rate for overall accesses
system.l2.demand_avg_mshr_miss_latency::.cpu.inst 84740.072202                       # average overall mshr miss latency
system.l2.demand_avg_mshr_miss_latency::.cpu.data 90663.393929                       # average overall mshr miss latency
system.l2.demand_avg_mshr_miss_latency::total 90651.028006                       # average overall mshr miss latency
system.l2.overall_avg_mshr_miss_latency::.cpu.inst 84740.072202                       # average overall mshr miss latency
system.l2.overall_avg_mshr_miss_latency::.cpu.data 90663.393929                       # average overall mshr miss latency
system.l2.overall_avg_mshr_miss_latency::total 90651.028006                       # average overall mshr miss latency
system.l2.replacements                          99916                       # number of replacements
system.l2.WritebackDirty_hits::.writebacks       131317                       # number of WritebackDirty hits
system.l2.WritebackDirty_hits::total           131317                       # number of WritebackDirty hits
system.l2.WritebackDirty_accesses::.writebacks       131317                       # number of WritebackDirty accesses(hits+misses)
system.l2.WritebackDirty_accesses::total       131317                       # number of WritebackDirty accesses(hits+misses)
system.l2.WritebackClean_hits::.writebacks          110                       # number of WritebackClean hits
system.l2.WritebackClean_hits::total              110                       # number of WritebackClean hits
system.l2.WritebackClean_accesses::.writebacks          110                       # number of WritebackClean accesses(hits+misses)
system.l2.WritebackClean_accesses::total          110                       # number of WritebackClean accesses(hits+misses)
system.l2.ReadExReq_hits::.cpu.data                 6                       # number of ReadExReq hits
system.l2.ReadExReq_hits::total                     6                       # number of ReadExReq hits
system.l2.ReadExReq_misses::.cpu.data          132315                       # number of ReadExReq misses
system.l2.ReadExReq_misses::total              132315                       # number of ReadExReq misses
system.l2.ReadExReq_miss_latency::.cpu.data  14642643000                       # number of ReadExReq miss cycles
system.l2.ReadExReq_miss_latency::total   14642643000                       # number of ReadExReq miss cycles
system.l2.ReadExReq_accesses::.cpu.data        132321                       # number of ReadExReq accesses(hits+misses)
system.l2.ReadExReq_accesses::total            132321                       # number of ReadExReq accesses(hits+misses)
system.l2.ReadExReq_miss_rate::.cpu.data     0.999955                       # miss rate for ReadExReq accesses
system.l2.ReadExReq_miss_rate::total         0.999955                       # miss rate for ReadExReq accesses
system.l2.ReadExReq_avg_miss_latency::.cpu.data 110665.026641                       # average ReadExReq miss latency
system.l2.ReadExReq_avg_miss_latency::total 110665.026641                       # average ReadExReq miss latency
system.l2.ReadExReq_mshr_misses::.cpu.data       132315                       # number of ReadExReq MSHR misses
system.l2.ReadExReq_mshr_misses::total         132315                       # number of ReadExReq MSHR misses
system.l2.ReadExReq_mshr_miss_latency::.cpu.data  11996343000                       # number of ReadExReq MSHR miss cycles
system.l2.ReadExReq_mshr_miss_latency::total  11996343000                       # number of ReadExReq MSHR miss cycles
system.l2.ReadExReq_mshr_miss_rate::.cpu.data     0.999955                       # mshr miss rate for ReadExReq accesses
system.l2.ReadExReq_mshr_miss_rate::total     0.999955                       # mshr miss rate for ReadExReq accesses
system.l2.ReadExReq_avg_mshr_miss_latency::.cpu.data 90665.026641                       # average ReadExReq mshr miss latency
system.l2.ReadExReq_avg_mshr_miss_latency::total 90665.026641                       # average ReadExReq mshr miss latency
system.l2.ReadCleanReq_hits::.cpu.inst             52                       # number of ReadCleanReq hits
system.l2.ReadCleanReq_hits::total                 52                       # number of ReadCleanReq hits
system.l2.ReadCleanReq_misses::.cpu.inst          277                       # number of ReadCleanReq misses
system.l2.ReadCleanReq_misses::total              277                       # number of ReadCleanReq misses
system.l2.ReadCleanReq_miss_latency::.cpu.inst     29013000                       # number of ReadCleanReq miss cycles
system.l2.ReadCleanReq_miss_latency::total     29013000                       # number of ReadCleanReq miss cycles
system.l2.ReadCleanReq_accesses::.cpu.inst          329                       # number of ReadCleanReq accesses(hits+misses)
system.l2.ReadCleanReq_accesses::total            329                       # number of ReadCleanReq accesses(hits+misses)
system.l2.ReadCleanReq_miss_rate::.cpu.inst     0.841945                       # miss rate for ReadCleanReq accesses
system.l2.ReadCleanReq_miss_rate::total      0.841945                       # miss rate for ReadCleanReq accesses
system.l2.ReadCleanReq_avg_miss_latency::.cpu.inst 104740.072202                       # average ReadCleanReq miss latency
system.l2.ReadCleanReq_avg_miss_latency::total 104740.072202                       # average ReadCleanReq miss latency
system.l2.ReadCleanReq_mshr_misses::.cpu.inst          277                       # number of ReadCleanReq MSHR misses
system.l2.ReadCleanReq_mshr_misses::total          277                       # number of ReadCleanReq MSHR misses
system.l2.ReadCleanReq_mshr_miss_latency::.cpu.inst     23473000                       # number of ReadCleanReq MSHR miss cycles
system.l2.ReadCleanReq_mshr_miss_latency::total     23473000                       # number of ReadCleanReq MSHR miss cycles
system.l2.ReadCleanReq_mshr_miss_rate::.cpu.inst     0.841945                       # mshr miss rate for ReadCleanReq accesses
system.l2.ReadCleanReq_mshr_miss_rate::total     0.841945                       # mshr miss rate for ReadCleanReq accesses
system.l2.ReadCleanReq_avg_mshr_miss_latency::.cpu.inst 84740.072202                       # average ReadCleanReq mshr miss latency
system.l2.ReadCleanReq_avg_mshr_miss_latency::total 84740.072202                       # average ReadCleanReq mshr miss latency
system.l2.ReadSharedReq_hits::.cpu.data            33                       # number of ReadSharedReq hits
system.l2.ReadSharedReq_hits::total                33                       # number of ReadSharedReq hits
system.l2.ReadSharedReq_misses::.cpu.data           99                       # number of ReadSharedReq misses
system.l2.ReadSharedReq_misses::total              99                       # number of ReadSharedReq misses
system.l2.ReadSharedReq_miss_latency::.cpu.data     10533000                       # number of ReadSharedReq miss cycles
system.l2.ReadSharedReq_miss_latency::total     10533000                       # number of ReadSharedReq miss cycles
system.l2.ReadSharedReq_accesses::.cpu.data          132                       # number of ReadSharedReq accesses(hits+misses)
system.l2.ReadSharedReq_accesses::total           132                       # number of ReadSharedReq accesses(hits+misses)
system.l2.ReadSharedReq_miss_rate::.cpu.data     0.750000                       # miss rate for ReadSharedReq accesses
system.l2.ReadSharedReq_miss_rate::total     0.750000                       # miss rate for ReadSharedReq accesses
system.l2.ReadSharedReq_avg_miss_latency::.cpu.data 106393.939394                       # average ReadSharedReq miss latency
system.l2.ReadSharedReq_avg_miss_latency::total 106393.939394                       # average ReadSharedReq miss latency
system.l2.ReadSharedReq_mshr_hits::.cpu.data            7                       # number of ReadSharedReq MSHR hits
system.l2.ReadSharedReq_mshr_hits::total            7                       # number of ReadSharedReq MSHR hits
system.l2.ReadSharedReq_mshr_misses::.cpu.data           92                       # number of ReadSharedReq MSHR misses
system.l2.ReadSharedReq_mshr_misses::total           92                       # number of ReadSharedReq MSHR misses
system.l2.ReadSharedReq_mshr_miss_latency::.cpu.data      8125000                       # number of ReadSharedReq MSHR miss cycles
system.l2.ReadSharedReq_mshr_miss_latency::total      8125000                       # number of ReadSharedReq MSHR miss cycles
system.l2.ReadSharedReq_mshr_miss_rate::.cpu.data     0.696970                       # mshr miss rate for ReadSharedReq accesses
system.l2.ReadSharedReq_mshr_miss_rate::total     0.696970                       # mshr miss rate for ReadSharedReq accesses
system.l2.ReadSharedReq_avg_mshr_miss_latency::.cpu.data 88315.217391                       # average ReadSharedReq mshr miss latency
system.l2.ReadSharedReq_avg_mshr_miss_latency::total 88315.217391                       # average ReadSharedReq mshr miss latency
system.l2.tags.pwrStateResidencyTicks::UNDEFINED  29918013000                       # Cumulative time (in ticks) in various power states
system.l2.tags.tagsinuse                 23784.825584                       # Cycle average of tags in use
system.l2.tags.total_refs                      264284                       # Total number of references to valid blocks.
system.l2.tags.sampled_refs                    132684                       # Sample count of references to valid blocks.
system.l2.tags.avg_refs                      1.991830                       # Average number of references to valid blocks.
system.l2.tags.warmup_cycle                     92000                       # Cycle when the warmup percentage was hit.
system.l2.tags.occ_blocks::.cpu.inst        95.861930                       # Average occupied blocks per requestor
system.l2.tags.occ_blocks::.cpu.data     23688.963654                       # Average occupied blocks per requestor
system.l2.tags.occ_percent::.cpu.inst        0.002925                       # Average percentage of cache occupancy
system.l2.tags.occ_percent::.cpu.data        0.722930                       # Average percentage of cache occupancy
system.l2.tags.occ_percent::total            0.725855                       # Average percentage of cache occupancy
system.l2.tags.occ_task_id_blocks::1024         32768                       # Occupied blocks per task id
system.l2.tags.age_task_id_blocks_1024::0           54                       # Occupied blocks per task id
system.l2.tags.age_task_id_blocks_1024::1          484                       # Occupied blocks per task id
system.l2.tags.age_task_id_blocks_1024::2         4815                       # Occupied blocks per task id
system.l2.tags.age_task_id_blocks_1024::3        27415                       # Occupied blocks per task id
system.l2.tags.occ_task_id_percent::1024            1                       # Percentage of cache occupancy per task id
system.l2.tags.tag_accesses                   2247012                       # Number of tag accesses
system.l2.tags.data_accesses                  2247012                       # Number of data accesses
system.cpu_voltage_domain.voltage                   1                       # Voltage in Volts
system.mem_ctrls.pwrStateResidencyTicks::UNDEFINED  29918013000                       # Cumulative time (in ticks) in various power states
system.mem_ctrls.bytes_read::.cpu.inst          35456                       # Number of bytes read from this memory
system.mem_ctrls.bytes_read::.cpu.data       16948096                       # Number of bytes read from this memory
system.mem_ctrls.bytes_read::total           16983552                       # Number of bytes read from this memory
system.mem_ctrls.bytes_inst_read::.cpu.inst        35456                       # Number of instructions bytes read from this memory
system.mem_ctrls.bytes_inst_read::total         35456                       # Number of instructions bytes read from this memory
system.mem_ctrls.bytes_written::.writebacks     12743296                       # Number of bytes written to this memory
system.mem_ctrls.bytes_written::total        12743296                       # Number of bytes written to this memory
system.mem_ctrls.num_reads::.cpu.inst             277                       # Number of read requests responded to by this memory
system.mem_ctrls.num_reads::.cpu.data          132407                       # Number of read requests responded to by this memory
system.mem_ctrls.num_reads::total              132684                       # Number of read requests responded to by this memory
system.mem_ctrls.num_writes::.writebacks        99557                       # Number of write requests responded to by this memory
system.mem_ctrls.num_writes::total              99557                       # Number of write requests responded to by this memory
system.mem_ctrls.bw_read::.cpu.inst           1185105                       # Total read bandwidth from this memory (bytes/s)
system.mem_ctrls.bw_read::.cpu.data         566484679                       # Total read bandwidth from this memory (bytes/s)
system.mem_ctrls.bw_read::total             567669785                       # Total read bandwidth from this memory (bytes/s)
system.mem_ctrls.bw_inst_read::.cpu.inst      1185105                       # Instruction read bandwidth from this memory (bytes/s)
system.mem_ctrls.bw_inst_read::total          1185105                       # Instruction read bandwidth from this memory (bytes/s)
system.mem_ctrls.bw_write::.writebacks      425940586                       # Write bandwidth from this memory (bytes/s)
system.mem_ctrls.bw_write::total            425940586                       # Write bandwidth from this memory (bytes/s)
system.mem_ctrls.bw_total::.writebacks      425940586                       # Total bandwidth to/from this memory (bytes/s)
system.mem_ctrls.bw_total::.cpu.inst          1185105                       # Total bandwidth to/from this memory (bytes/s)
system.mem_ctrls.bw_total::.cpu.data        566484679                       # Total bandwidth to/from this memory (bytes/s)
system.mem_ctrls.bw_total::total            993610371                       # Total bandwidth to/from this memory (bytes/s)
system.mem_ctrls.avgPriority_.writebacks::samples    199114.00                       # Average QoS priority value for accepted requests
system.mem_ctrls.avgPriority_.cpu.inst::samples       554.00                       # Average QoS priority value for accepted requests
system.mem_ctrls.avgPriority_.cpu.data::samples    264814.00                       # Average QoS priority value for accepted requests
system.mem_ctrls.priorityMinLatency      0.000000018750                       # per QoS priority minimum request to response latency (s)
system.mem_ctrls.priorityMaxLatency      0.000694998500                       # per QoS priority maximum request to response latency (s)
system.mem_ctrls.numReadWriteTurnArounds        11071                       # Number of turnarounds from READ to WRITE
system.mem_ctrls.numWriteReadTurnArounds        11072                       # Number of turnarounds from WRITE to READ
system.mem_ctrls.numStayReadState              496711                       # Number of times bus staying in READ state
system.mem_ctrls.numStayWriteState             188446                       # Number of times bus staying in WRITE state
system.mem_ctrls.readReqs                      132684                       # Number of read requests accepted
system.mem_ctrls.writeReqs                      99557                       # Number of write requests accepted
system.mem_ctrls.readBursts                    265368                       # Number of DRAM read bursts, including those serviced by the write queue
system.mem_ctrls.writeBursts                   199114                       # Number of DRAM write bursts, including those merged in the write queue
system.mem_ctrls.servicedByWrQ                      0                       # Number of DRAM read bursts serviced by the write queue
system.mem_ctrls.mergedWrBursts                     0                       # Number of DRAM write bursts merged with an existing one
system.mem_ctrls.neitherReadNorWriteReqs            0                       # Number of requests that are neither read nor write
system.mem_ctrls.perBankRdBursts::0             16580                       # Per bank write bursts
system.mem_ctrls.perBankRdBursts::1             16662                       # Per bank write bursts
system.mem_ctrls.perBankRdBursts::2             16640                       # Per bank write bursts
system.mem_ctrls.perBankRdBursts::3             16628                       # Per bank write bursts
system.mem_ctrls.perBankRdBursts::4             16586                       # Per bank write bursts
system.mem_ctrls.perBankRdBursts::5             16636                       # Per bank write bursts
system.mem_ctrls.perBankRdBursts::6             16622                       # Per bank write bursts
system.mem_ctrls.perBankRdBursts::7             16564                       # Per bank write bursts
system.mem_ctrls.perBankRdBursts::8             16526                       # Per bank write bursts
system.mem_ctrls.perBankRdBursts::9             16548                       # Per bank write bursts
system.mem_ctrls.perBankRdBursts::10            16550                       # Per bank write bursts
system.mem_ctrls.perBankRdBursts::11            16574                       # Per bank write bursts
system.mem_ctrls.perBankRdBursts::12            16574                       # Per bank write bursts
system.mem_ctrls.perBankRdBursts::13            16536                       # Per bank write bursts
system.mem_ctrls.perBankRdBursts::14            16654                       # Per bank write bursts
system.mem_ctrls.perBankRdBursts::15            16488                       # Per bank write bursts
system.mem_ctrls.perBankWrBursts::0             12372                       # Per bank write bursts
system.mem_ctrls.perBankWrBursts::1             12518                       # Per bank write bursts
system.mem_ctrls.perBankWrBursts::2             12506                       # Per bank write bursts
system.mem_ctrls.perBankWrBursts::3             12508                       # Per bank write bursts
system.mem_ctrls.perBankWrBursts::4             12482                       # Per bank write bursts
system.mem_ctrls.perBankWrBursts::5             12484                       # Per bank write bursts
system.mem_ctrls.perBankWrBursts::6             12498                       # Per bank write bursts
system.mem_ctrls.perBankWrBursts::7             12462                       # Per bank write bursts
system.mem_ctrls.perBankWrBursts::8             12416                       # Per bank write bursts
system.mem_ctrls.perBankWrBursts::9             12416                       # Per bank write bursts
system.mem_ctrls.perBankWrBursts::10            12338                       # Per bank write bursts
system.mem_ctrls.perBankWrBursts::11            12436                       # Per bank write bursts
system.mem_ctrls.perBankWrBursts::12            12444                       # Per bank write bursts
system.mem_ctrls.perBankWrBursts::13            12388                       # Per bank write bursts
system.mem_ctrls.perBankWrBursts::14            12452                       # Per bank write bursts
system.mem_ctrls.perBankWrBursts::15            12368                       # Per bank write bursts
system.mem_ctrls.avgRdQLen                       2.05                       # Average read queue length when enqueuing
system.mem_ctrls.avgWrQLen                      16.56                       # Average write queue length when enqueuing
system.mem_ctrls.totQLat                   4789081750                       # Total ticks spent queuing
system.mem_ctrls.totBusLat                 1326840000                       # Total ticks spent in databus transfers
system.mem_ctrls.totMemAccLat              9764731750                       # Total ticks spent from burst creation until serviced by the DRAM
system.mem_ctrls.avgQLat                     18046.95                       # Average queueing delay per DRAM burst
system.mem_ctrls.avgBusLat                    5000.00                       # Average bus latency per DRAM burst
system.mem_ctrls.avgMemAccLat                36796.95                       # Average memory access latency per DRAM burst
system.mem_ctrls.numRdRetry                         0                       # Number of times read queue was full causing retry
system.mem_ctrls.numWrRetry                         0                       # Number of times write queue was full causing retry
system.mem_ctrls.readRowHits                   237523                       # Number of row buffer hits during reads
system.mem_ctrls.writeRowHits                  176898                       # Number of row buffer hits during writes
system.mem_ctrls.readRowHitRate                 89.51                       # Row buffer hit rate for reads
system.mem_ctrls.writeRowHitRate                88.84                       # Row buffer hit rate for writes
system.mem_ctrls.readPktSize::0                     0                       # Read request sizes (log2)
system.mem_ctrls.readPktSize::1                     0                       # Read request sizes (log2)
system.mem_ctrls.readPktSize::2                     0                       # Read request sizes (log2)
system.mem_ctrls.readPktSize::3                     0                       # Read request sizes (log2)
system.mem_ctrls.readPktSize::4                     0                       # Read request sizes (log2)
system.mem_ctrls.readPktSize::5                     0                       # Read request sizes (log2)
system.mem_ctrls.readPktSize::6                265368                       # Read request sizes (log2)
system.mem_ctrls.writePktSize::0                    0                       # Write request sizes (log2)
system.mem_ctrls.writePktSize::1                    0                       # Write request sizes (log2)
system.mem_ctrls.writePktSize::2                    0                       # Write request sizes (log2)
system.mem_ctrls.writePktSize::3                    0                       # Write request sizes (log2)
system.mem_ctrls.writePktSize::4                    0                       # Write request sizes (log2)
system.mem_ctrls.writePktSize::5                    0                       # Write request sizes (log2)
system.mem_ctrls.writePktSize::6               199114                       # Write request sizes (log2)
system.mem_ctrls.rdQLenPdf::0                  132542                       # What read queue length does an incoming req see
system.mem_ctrls.rdQLenPdf::1                  132543                       # What read queue length does an incoming req see
system.mem_ctrls.rdQLenPdf::2                     135                       # What read queue length does an incoming req see
system.mem_ctrls.rdQLenPdf::3                     134                       # What read queue length does an incoming req see
system.mem_ctrls.rdQLenPdf::4                       7                       # What read queue length does an incoming req see
system.mem_ctrls.rdQLenPdf::5                       7                       # What read queue length does an incoming req see
system.mem_ctrls.rdQLenPdf::6                       0                       # What read queue length does an incoming req see
system.mem_ctrls.rdQLenPdf::7                       0                       # What read queue length does an incoming req see
system.mem_ctrls.rdQLenPdf::8                       0                       # What read queue length does an incoming req see
system.mem_ctrls.rdQLenPdf::9                       0                       # What read queue length does an incoming req see
system.mem_ctrls.rdQLenPdf::10                      0                       # What read queue length does an incoming req see
system.mem_ctrls.rdQLenPdf::11                      0                       # What read queue length does an incoming req see
system.mem_ctrls.rdQLenPdf::12                      0                       # What read queue length does an incoming req see
system.mem_ctrls.rdQLenPdf::13                      0                       # What read queue length does an incoming req see
system.mem_ctrls.rdQLenPdf::14                      0                       # What read queue length does an incoming req see
system.mem_ctrls.rdQLenPdf::15                      0                       # What read queue length does an incoming req see
system.mem_ctrls.rdQLenPdf::16                      0                       # What read queue length does an incoming req see
system.mem_ctrls.rdQLenPdf::17                      0                       # What read queue length does an incoming req see
system.mem_ctrls.rdQLenPdf::18                      0                       # What read queue length does an incoming req see
system.mem_ctrls.rdQLenPdf::19                      0                       # What read queue length does an incoming req see
system.mem_ctrls.rdQLenPdf::20                      0                       # What read queue length does an incoming req see
system.mem_ctrls.rdQLenPdf::21                      0                       # What read queue length does an incoming req see
system.mem_ctrls.rdQLenPdf::22                      0                       # What read queue length does an incoming req see
system.mem_ctrls.rdQLenPdf::23                      0                       # What read queue length does an incoming req see
system.mem_ctrls.rdQLenPdf::24                      0                       # What read queue length does an incoming req see
system.mem_ctrls.rdQLenPdf::25                      0                       # What read queue length does an incoming req see
system.mem_ctrls.rdQLenPdf::26                      0                       # What read queue length does an incoming req see
system.mem_ctrls.rdQLenPdf::27                      0                       # What read queue length does an incoming req see
system.mem_ctrls.rdQLenPdf::28                      0                       # What read queue length does an incoming req see
system.mem_ctrls.rdQLenPdf::29                      0                       # What read queue length does an incoming req see
system.mem_ctrls.rdQLenPdf::30                      0                       # What read queue length does an incoming req see
system.mem_ctrls.rdQLenPdf::31                      0                       # What read queue length does an incoming req see
system.mem_ctrls.wrQLenPdf::0                       1                       # What write queue length does an incoming req see
system.mem_ctrls.wrQLenPdf::1                       1                       # What write queue length does an incoming req see
system.mem_ctrls.wrQLenPdf::2                       1                       # What write queue length does an incoming req see
system.mem_ctrls.wrQLenPdf::3                       1                       # What write queue length does an incoming req see
system.mem_ctrls.wrQLenPdf::4                       1                       # What write queue length does an incoming req see
system.mem_ctrls.wrQLenPdf::5                       1                       # What write queue length does an incoming req see
system.mem_ctrls.wrQLenPdf::6                       1                       # What write queue length does an incoming req see
system.mem_ctrls.wrQLenPdf::7                       1                       # What write queue length does an incoming req see
system.mem_ctrls.wrQLenPdf::8                       1                       # What write queue length does an incoming req see
system.mem_ctrls.wrQLenPdf::9                       1                       # What write queue length does an incoming req see
system.mem_ctrls.wrQLenPdf::10                      1                       # What write queue length does an incoming req see
system.mem_ctrls.wrQLenPdf::11                      1                       # What write queue length does an incoming req see
system.mem_ctrls.wrQLenPdf::12                      1                       # What write queue length does an incoming req see
system.mem_ctrls.wrQLenPdf::13                      1                       # What write queue length does an incoming req see
system.mem_ctrls.wrQLenPdf::14                      1                       # What write queue length does an incoming req see
system.mem_ctrls.wrQLenPdf::15                  10940                       # What write queue length does an incoming req see
system.mem_ctrls.wrQLenPdf::16                  10943                       # What write queue length does an incoming req see
system.mem_ctrls.wrQLenPdf::17                  11081                       # What write queue length does an incoming req see
system.mem_ctrls.wrQLenPdf::18                  11081                       # What write queue length does an incoming req see
system.mem_ctrls.wrQLenPdf::19                  11072                       # What write queue length does an incoming req see
system.mem_ctrls.wrQLenPdf::20                  11072                       # What write queue length does an incoming req see
system.mem_ctrls.wrQLenPdf::21                  11072                       # What write queue length does an incoming req see
system.mem_ctrls.wrQLenPdf::22                  11093                       # What write queue length does an incoming req see
system.mem_ctrls.wrQLenPdf::23                  11093                       # What write queue length does an incoming req see
system.mem_ctrls.wrQLenPdf::24                  11072                       # What write queue length does an incoming req see
system.mem_ctrls.wrQLenPdf::25                  11072                       # What write queue length does an incoming req see
system.mem_ctrls.wrQLenPdf::26                  11072                       # What write queue length does an incoming req see
system.mem_ctrls.wrQLenPdf::27                  11072                       # What write queue length does an incoming req see
system.mem_ctrls.wrQLenPdf::28                  11072                       # What write queue length does an incoming req see
system.mem_ctrls.wrQLenPdf::29                  11072                       # What write queue length does an incoming req see
system.mem_ctrls.wrQLenPdf::30                  11072                       # What write queue length does an incoming req see
system.mem_ctrls.wrQLenPdf::31                  11072                       # What write queue length does an incoming req see
system.mem_ctrls.wrQLenPdf::32                  11072                       # What write queue length does an incoming req see
system.mem_ctrls.wrQLenPdf::33                      4                       # What write queue length does an incoming req see
system.mem_ctrls.wrQLenPdf::34                      0                       # What write queue length does an incoming req see
system.mem_ctrls.wrQLenPdf::35                      0                       # What write queue length does an incoming req see
system.mem_ctrls.wrQLenPdf::36                      0                       # What write queue length does an incoming req see
system.mem_ctrls.wrQLenPdf::37                      0                       # What write queue length does an incoming req see
system.mem_ctrls.wrQLenPdf::38                      0                       # What write queue length does an incoming req see
system.mem_ctrls.wrQLenPdf::39                      0                       # What write queue length does an incoming req see
system.mem_ctrls.wrQLenPdf::40                      0                       # What write queue length does an incoming req see
system.mem_ctrls.wrQLenPdf::41                      0                       # What write queue length does an incoming req see
system.mem_ctrls.wrQLenPdf::42                      0                       # What write queue length does an incoming req see
system.mem_ctrls.wrQLenPdf::43                      0                       # What write queue length does an incoming req see
system.mem_ctrls.wrQLenPdf::44                      0                       # What write queue length does an incoming req see
system.mem_ctrls.wrQLenPdf::45                      0                       # What write queue length does an incoming req see
system.mem_ctrls.wrQLenPdf::46                      0                       # What write queue length does an incoming req see
system.mem_ctrls.wrQLenPdf::47                      0                       # What write queue length does an incoming req see
system.mem_ctrls.wrQLenPdf::48                      0                       # What write queue length does an incoming req see
system.mem_ctrls.wrQLenPdf::49                      0                       # What write queue length does an incoming req see
system.mem_ctrls.wrQLenPdf::50                      0                       # What write queue length does an incoming req see
system.mem_ctrls.wrQLenPdf::51                      0                       # What write queue length does an incoming req see
system.mem_ctrls.wrQLenPdf::52                      0                       # What write queue length does an incoming req see
system.mem_ctrls.wrQLenPdf::53                      0                       # What write queue length does an incoming req see
system.mem_ctrls.wrQLenPdf::54                      0                       # What write queue length does an incoming req see
system.mem_ctrls.wrQLenPdf::55                      0                       # What write queue length does an incoming req see
system.mem_ctrls.wrQLenPdf::56                      0                       # What write queue length does an incoming req see
system.mem_ctrls.wrQLenPdf::57                      0                       # What write queue length does an incoming req see
system.mem_ctrls.wrQLenPdf::58                      0                       # What write queue length does an incoming req see
system.mem_ctrls.wrQLenPdf::59                      0                       # What write queue length does an incoming req see
system.mem_ctrls.wrQLenPdf::60                      0                       # What write queue length does an incoming req see
system.mem_ctrls.wrQLenPdf::61                      0                       # What write queue length does an incoming req see
system.mem_ctrls.wrQLenPdf::62                      0                       # What write queue length does an incoming req see
system.mem_ctrls.wrQLenPdf::63                      0                       # What write queue length does an incoming req see
system.mem_ctrls.bytesPerActivate::samples        50034                       # Bytes accessed per row activation
system.mem_ctrls.bytesPerActivate::mean    594.090738                       # Bytes accessed per row activation
system.mem_ctrls.bytesPerActivate::gmean   400.952305                       # Bytes accessed per row activation
system.mem_ctrls.bytesPerActivate::stdev   417.991207                       # Bytes accessed per row activation
system.mem_ctrls.bytesPerActivate::0-127          690      1.38%      1.38% # Bytes accessed per row activation
system.mem_ctrls.bytesPerActivate::128-255        19011     38.00%     39.38% # Bytes accessed per row activation
system.mem_ctrls.bytesPerActivate::256-383         1702      3.40%     42.78% # Bytes accessed per row activation
system.mem_ctrls.bytesPerActivate::384-511         1444      2.89%     45.66% # Bytes accessed per row activation
system.mem_ctrls.bytesPerActivate::512-639         1270      2.54%     48.20% # Bytes accessed per row activation
system.mem_ctrls.bytesPerActivate::640-767         1475      2.95%     51.15% # Bytes accessed per row activation
system.mem_ctrls.bytesPerActivate::768-895         1445      2.89%     54.04% # Bytes accessed per row activation
system.mem_ctrls.bytesPerActivate::896-1023         1354      2.71%     56.74% # Bytes accessed per row activation
system.mem_ctrls.bytesPerActivate::1024-1151        21643     43.26%    100.00% # Bytes accessed per row activation
system.mem_ctrls.bytesPerActivate::total        50034                       # Bytes accessed per row activation
system.mem_ctrls.rdPerTurnAround::samples        11072                       # Reads before turning the bus around for writes
system.mem_ctrls.rdPerTurnAround::mean      23.967486                       # Reads before turning the bus around for writes
system.mem_ctrls.rdPerTurnAround::gmean     18.089608                       # Reads before turning the bus around for writes
system.mem_ctrls.rdPerTurnAround::stdev    557.412652                       # Reads before turning the bus around for writes
system.mem_ctrls.rdPerTurnAround::0-2047        11070     99.98%     99.98% # Reads before turning the bus around for writes
system.mem_ctrls.rdPerTurnAround::2048-4095            1      0.01%     99.99% # Reads before turning the bus around for writes
system.mem_ctrls.rdPerTurnAround::57344-59391            1      0.01%    100.00% # Reads before turning the bus around for writes
system.mem_ctrls.rdPerTurnAround::total         11072                       # Reads before turning the bus around for writes
system.mem_ctrls.wrPerTurnAround::samples        11071                       # Writes before turning the bus around for reads
system.mem_ctrls.wrPerTurnAround::mean      17.982206                       # Writes before turning the bus around for reads
system.mem_ctrls.wrPerTurnAround::gmean     17.980529                       # Writes before turning the bus around for reads
system.mem_ctrls.wrPerTurnAround::stdev      0.239597                       # Writes before turning the bus around for reads
system.mem_ctrls.wrPerTurnAround::16              129      1.17%      1.17% # Writes before turning the bus around for reads
system.mem_ctrls.wrPerTurnAround::17                1      0.01%      1.17% # Writes before turning the bus around for reads
system.mem_ctrls.wrPerTurnAround::18            10909     98.54%     99.71% # Writes before turning the bus around for reads
system.mem_ctrls.wrPerTurnAround::19                2      0.02%     99.73% # Writes before turning the bus around for reads
[...]
system.cpu.icache.ReadReq_miss_rate::total     0.000185                       # miss rate for ReadReq accesses
system.cpu.icache.ReadReq_avg_miss_latency::.cpu.inst 96787.234043                       # average ReadReq miss latency
system.cpu.icache.ReadReq_avg_miss_latency::total 96787.234043                       # average ReadReq miss latency
system.cpu.icache.ReadReq_mshr_misses::.cpu.inst          329                       # number of ReadReq MSHR misses
system.cpu.icache.ReadReq_mshr_misses::total          329                       # number of ReadReq MSHR misses
system.cpu.icache.ReadReq_mshr_miss_latency::.cpu.inst     31185000                       # number of ReadReq MSHR miss cycles
system.cpu.icache.ReadReq_mshr_miss_latency::total     31185000                       # number of ReadReq MSHR miss cycles
system.cpu.icache.ReadReq_mshr_miss_rate::.cpu.inst     0.000185                       # mshr miss rate for ReadReq accesses
system.cpu.icache.ReadReq_mshr_miss_rate::total     0.000185                       # mshr miss rate for ReadReq accesses
system.cpu.icache.ReadReq_avg_mshr_miss_latency::.cpu.inst 94787.234043                       # average ReadReq mshr miss latency
system.cpu.icache.ReadReq_avg_mshr_miss_latency::total 94787.234043                       # average ReadReq mshr miss latency
system.cpu.icache.tags.pwrStateResidencyTicks::UNDEFINED  29918013000                       # Cumulative time (in ticks) in various power states
system.cpu.icache.tags.tagsinuse           209.697237                       # Cycle average of tags in use
system.cpu.icache.tags.total_refs             1781335                       # Total number of references to valid blocks.
system.cpu.icache.tags.sampled_refs               329                       # Sample count of references to valid blocks.
system.cpu.icache.tags.avg_refs           5414.392097                       # Average number of references to valid blocks.
system.cpu.icache.tags.warmup_cycle            113000                       # Cycle when the warmup percentage was hit.
system.cpu.icache.tags.occ_blocks::.cpu.inst   209.697237                       # Average occupied blocks per requestor
system.cpu.icache.tags.occ_percent::.cpu.inst     0.819130                       # Average percentage of cache occupancy
system.cpu.icache.tags.occ_percent::total     0.819130                       # Average percentage of cache occupancy
system.cpu.icache.tags.occ_task_id_blocks::1024          212                       # Occupied blocks per task id
system.cpu.icache.tags.age_task_id_blocks_1024::4          212                       # Occupied blocks per task id
system.cpu.icache.tags.occ_task_id_percent::1024     0.828125                       # Percentage of cache occupancy per task id
system.cpu.icache.tags.tag_accesses           3562999                       # Number of tag accesses
system.cpu.icache.tags.data_accesses          3562999                       # Number of data accesses
system.cpu.dtb.walker.pwrStateResidencyTicks::UNDEFINED  29918013000                       # Cumulative time (in ticks) in various power states
system.cpu.dtb.stage2_mmu.stage2_tlb.walker.pwrStateResidencyTicks::UNDEFINED  29918013000                       # Cumulative time (in ticks) in various power states
system.cpu.dcache.pwrStateResidencyTicks::UNDEFINED  29918013000                       # Cumulative time (in ticks) in various power states
system.cpu.dcache.demand_hits::.cpu.data      6129368                       # number of demand (read+write) hits
system.cpu.dcache.demand_hits::total          6129368                       # number of demand (read+write) hits
system.cpu.dcache.overall_hits::.cpu.data      6129404                       # number of overall hits
system.cpu.dcache.overall_hits::total         6129404                       # number of overall hits
system.cpu.dcache.demand_misses::.cpu.data       263411                       # number of demand (read+write) misses
system.cpu.dcache.demand_misses::total         263411                       # number of demand (read+write) misses
system.cpu.dcache.overall_misses::.cpu.data       263432                       # number of overall misses
system.cpu.dcache.overall_misses::total        263432                       # number of overall misses
system.cpu.dcache.demand_miss_latency::.cpu.data  30846818000                       # number of demand (read+write) miss cycles
system.cpu.dcache.demand_miss_latency::total  30846818000                       # number of demand (read+write) miss cycles
system.cpu.dcache.overall_miss_latency::.cpu.data  30846818000                       # number of overall miss cycles
system.cpu.dcache.overall_miss_latency::total  30846818000                       # number of overall miss cycles
system.cpu.dcache.demand_accesses::.cpu.data      6392779                       # number of demand (read+write) accesses
system.cpu.dcache.demand_accesses::total      6392779                       # number of demand (read+write) accesses
system.cpu.dcache.overall_accesses::.cpu.data      6392836                       # number of overall (read+write) accesses
system.cpu.dcache.overall_accesses::total      6392836                       # number of overall (read+write) accesses
system.cpu.dcache.demand_miss_rate::.cpu.data     0.041204                       # miss rate for demand accesses
system.cpu.dcache.demand_miss_rate::total     0.041204                       # miss rate for demand accesses
system.cpu.dcache.overall_miss_rate::.cpu.data     0.041207                       # miss rate for overall accesses
system.cpu.dcache.overall_miss_rate::total     0.041207                       # miss rate for overall accesses
system.cpu.dcache.demand_avg_miss_latency::.cpu.data 117105.276545                       # average overall miss latency
system.cpu.dcache.demand_avg_miss_latency::total 117105.276545                       # average overall miss latency
system.cpu.dcache.overall_avg_miss_latency::.cpu.data 117095.941268                       # average overall miss latency
system.cpu.dcache.overall_avg_miss_latency::total 117095.941268                       # average overall miss latency
system.cpu.dcache.blocked_cycles::no_mshrs            0                       # number of cycles access was blocked
system.cpu.dcache.blocked_cycles::no_targets            0                       # number of cycles access was blocked
system.cpu.dcache.blocked::no_mshrs                 0                       # number of cycles access was blocked
system.cpu.dcache.blocked::no_targets               0                       # number of cycles access was blocked
system.cpu.dcache.avg_blocked_cycles::no_mshrs          nan                       # average number of cycles each access was blocked
system.cpu.dcache.avg_blocked_cycles::no_targets          nan                       # average number of cycles each access was blocked
system.cpu.dcache.writebacks::.writebacks       131317                       # number of writebacks
system.cpu.dcache.writebacks::total            131317                       # number of writebacks
system.cpu.dcache.demand_mshr_hits::.cpu.data       130971                       # number of demand (read+write) MSHR hits
system.cpu.dcache.demand_mshr_hits::total       130971                       # number of demand (read+write) MSHR hits
system.cpu.dcache.overall_mshr_hits::.cpu.data       130971                       # number of overall MSHR hits
system.cpu.dcache.overall_mshr_hits::total       130971                       # number of overall MSHR hits
system.cpu.dcache.demand_mshr_misses::.cpu.data       132440                       # number of demand (read+write) MSHR misses
system.cpu.dcache.demand_mshr_misses::total       132440                       # number of demand (read+write) MSHR misses
system.cpu.dcache.overall_mshr_misses::.cpu.data       132453                       # number of overall MSHR misses
system.cpu.dcache.overall_mshr_misses::total       132453                       # number of overall MSHR misses
system.cpu.dcache.demand_mshr_miss_latency::.cpu.data  15050114000                       # number of demand (read+write) MSHR miss cycles
system.cpu.dcache.demand_mshr_miss_latency::total  15050114000                       # number of demand (read+write) MSHR miss cycles
system.cpu.dcache.overall_mshr_miss_latency::.cpu.data  15051420000                       # number of overall MSHR miss cycles
system.cpu.dcache.overall_mshr_miss_latency::total  15051420000                       # number of overall MSHR miss cycles
system.cpu.dcache.demand_mshr_miss_rate::.cpu.data     0.020717                       # mshr miss rate for demand accesses
system.cpu.dcache.demand_mshr_miss_rate::total     0.020717                       # mshr miss rate for demand accesses
system.cpu.dcache.overall_mshr_miss_rate::.cpu.data     0.020719                       # mshr miss rate for overall accesses
system.cpu.dcache.overall_mshr_miss_rate::total     0.020719                       # mshr miss rate for overall accesses
system.cpu.dcache.demand_avg_mshr_miss_latency::.cpu.data 113637.224404                       # average overall mshr miss latency
system.cpu.dcache.demand_avg_mshr_miss_latency::total 113637.224404                       # average overall mshr miss latency
system.cpu.dcache.overall_avg_mshr_miss_latency::.cpu.data 113635.931236                       # average overall mshr miss latency
system.cpu.dcache.overall_avg_mshr_miss_latency::total 113635.931236                       # average overall mshr miss latency
system.cpu.dcache.replacements                 131429                       # number of replacements
system.cpu.dcache.ReadReq_hits::.cpu.data      2035045                       # number of ReadReq hits
system.cpu.dcache.ReadReq_hits::total         2035045                       # number of ReadReq hits
system.cpu.dcache.ReadReq_misses::.cpu.data          132                       # number of ReadReq misses
system.cpu.dcache.ReadReq_misses::total           132                       # number of ReadReq misses
system.cpu.dcache.ReadReq_miss_latency::.cpu.data     11547000                       # number of ReadReq miss cycles
system.cpu.dcache.ReadReq_miss_latency::total     11547000                       # number of ReadReq miss cycles
system.cpu.dcache.ReadReq_accesses::.cpu.data      2035177                       # number of ReadReq accesses(hits+misses)
system.cpu.dcache.ReadReq_accesses::total      2035177                       # number of ReadReq accesses(hits+misses)
system.cpu.dcache.ReadReq_miss_rate::.cpu.data     0.000065                       # miss rate for ReadReq accesses
system.cpu.dcache.ReadReq_miss_rate::total     0.000065                       # miss rate for ReadReq accesses
system.cpu.dcache.ReadReq_avg_miss_latency::.cpu.data 87477.272727                       # average ReadReq miss latency
system.cpu.dcache.ReadReq_avg_miss_latency::total 87477.272727                       # average ReadReq miss latency
system.cpu.dcache.ReadReq_mshr_hits::.cpu.data           13                       # number of ReadReq MSHR hits
system.cpu.dcache.ReadReq_mshr_hits::total           13                       # number of ReadReq MSHR hits
system.cpu.dcache.ReadReq_mshr_misses::.cpu.data          119                       # number of ReadReq MSHR misses
system.cpu.dcache.ReadReq_mshr_misses::total          119                       # number of ReadReq MSHR misses
system.cpu.dcache.ReadReq_mshr_miss_latency::.cpu.data     10380000                       # number of ReadReq MSHR miss cycles
system.cpu.dcache.ReadReq_mshr_miss_latency::total     10380000                       # number of ReadReq MSHR miss cycles
system.cpu.dcache.ReadReq_mshr_miss_rate::.cpu.data     0.000058                       # mshr miss rate for ReadReq accesses
system.cpu.dcache.ReadReq_mshr_miss_rate::total     0.000058                       # mshr miss rate for ReadReq accesses
system.cpu.dcache.ReadReq_avg_mshr_miss_latency::.cpu.data 87226.890756                       # average ReadReq mshr miss latency
system.cpu.dcache.ReadReq_avg_mshr_miss_latency::total 87226.890756                       # average ReadReq mshr miss latency
system.cpu.dcache.WriteReq_hits::.cpu.data      4094323                       # number of WriteReq hits
system.cpu.dcache.WriteReq_hits::total        4094323                       # number of WriteReq hits
system.cpu.dcache.WriteReq_misses::.cpu.data       263279                       # number of WriteReq misses
system.cpu.dcache.WriteReq_misses::total       263279                       # number of WriteReq misses
system.cpu.dcache.WriteReq_miss_latency::.cpu.data  30835271000                       # number of WriteReq miss cycles
system.cpu.dcache.WriteReq_miss_latency::total  30835271000                       # number of WriteReq miss cycles
system.cpu.dcache.WriteReq_accesses::.cpu.data      4357602                       # number of WriteReq accesses(hits+misses)
system.cpu.dcache.WriteReq_accesses::total      4357602                       # number of WriteReq accesses(hits+misses)
system.cpu.dcache.WriteReq_miss_rate::.cpu.data     0.060418                       # miss rate for WriteReq accesses
system.cpu.dcache.WriteReq_miss_rate::total     0.060418                       # miss rate for WriteReq accesses
system.cpu.dcache.WriteReq_avg_miss_latency::.cpu.data 117120.131116                       # average WriteReq miss latency
system.cpu.dcache.WriteReq_avg_miss_latency::total 117120.131116                       # average WriteReq miss latency
system.cpu.dcache.WriteReq_mshr_hits::.cpu.data       130958                       # number of WriteReq MSHR hits
system.cpu.dcache.WriteReq_mshr_hits::total       130958                       # number of WriteReq MSHR hits
system.cpu.dcache.WriteReq_mshr_misses::.cpu.data       132321                       # number of WriteReq MSHR misses
system.cpu.dcache.WriteReq_mshr_misses::total       132321                       # number of WriteReq MSHR misses
system.cpu.dcache.WriteReq_mshr_miss_latency::.cpu.data  15039734000                       # number of WriteReq MSHR miss cycles
system.cpu.dcache.WriteReq_mshr_miss_latency::total  15039734000                       # number of WriteReq MSHR miss cycles
system.cpu.dcache.WriteReq_mshr_miss_rate::.cpu.data     0.030366                       # mshr miss rate for WriteReq accesses
system.cpu.dcache.WriteReq_mshr_miss_rate::total     0.030366                       # mshr miss rate for WriteReq accesses
system.cpu.dcache.WriteReq_avg_mshr_miss_latency::.cpu.data 113660.975960                       # average WriteReq mshr miss latency
system.cpu.dcache.WriteReq_avg_mshr_miss_latency::total 113660.975960                       # average WriteReq mshr miss latency
system.cpu.dcache.SoftPFReq_hits::.cpu.data           36                       # number of SoftPFReq hits
system.cpu.dcache.SoftPFReq_hits::total            36                       # number of SoftPFReq hits
system.cpu.dcache.SoftPFReq_misses::.cpu.data           21                       # number of SoftPFReq misses
system.cpu.dcache.SoftPFReq_misses::total           21                       # number of SoftPFReq misses
system.cpu.dcache.SoftPFReq_accesses::.cpu.data           57                       # number of SoftPFReq accesses(hits+misses)
system.cpu.dcache.SoftPFReq_accesses::total           57                       # number of SoftPFReq accesses(hits+misses)
system.cpu.dcache.SoftPFReq_miss_rate::.cpu.data     0.368421                       # miss rate for SoftPFReq accesses
system.cpu.dcache.SoftPFReq_miss_rate::total     0.368421                       # miss rate for SoftPFReq accesses
system.cpu.dcache.SoftPFReq_mshr_misses::.cpu.data           13                       # number of SoftPFReq MSHR misses
system.cpu.dcache.SoftPFReq_mshr_misses::total           13                       # number of SoftPFReq MSHR misses
system.cpu.dcache.SoftPFReq_mshr_miss_latency::.cpu.data      1306000                       # number of SoftPFReq MSHR miss cycles
system.cpu.dcache.SoftPFReq_mshr_miss_latency::total      1306000                       # number of SoftPFReq MSHR miss cycles
system.cpu.dcache.SoftPFReq_mshr_miss_rate::.cpu.data     0.228070                       # mshr miss rate for SoftPFReq accesses
system.cpu.dcache.SoftPFReq_mshr_miss_rate::total     0.228070                       # mshr miss rate for SoftPFReq accesses
system.cpu.dcache.SoftPFReq_avg_mshr_miss_latency::.cpu.data 100461.538462                       # average SoftPFReq mshr miss latency
system.cpu.dcache.SoftPFReq_avg_mshr_miss_latency::total 100461.538462                       # average SoftPFReq mshr miss latency
system.cpu.dcache.LoadLockedReq_hits::.cpu.data           20                       # number of LoadLockedReq hits
system.cpu.dcache.LoadLockedReq_hits::total           20                       # number of LoadLockedReq hits
system.cpu.dcache.LoadLockedReq_accesses::.cpu.data           20                       # number of LoadLockedReq accesses(hits+misses)
system.cpu.dcache.LoadLockedReq_accesses::total           20                       # number of LoadLockedReq accesses(hits+misses)
system.cpu.dcache.StoreCondReq_hits::.cpu.data           20                       # number of StoreCondReq hits
system.cpu.dcache.StoreCondReq_hits::total           20                       # number of StoreCondReq hits
system.cpu.dcache.StoreCondReq_accesses::.cpu.data           20                       # number of StoreCondReq accesses(hits+misses)
system.cpu.dcache.StoreCondReq_accesses::total           20                       # number of StoreCondReq accesses(hits+misses)
system.cpu.dcache.tags.pwrStateResidencyTicks::UNDEFINED  29918013000                       # Cumulative time (in ticks) in various power states
system.cpu.dcache.tags.tagsinuse           997.051087                       # Cycle average of tags in use
system.cpu.dcache.tags.total_refs             6261897                       # Total number of references to valid blocks.
system.cpu.dcache.tags.sampled_refs            132453                       # Sample count of references to valid blocks.
system.cpu.dcache.tags.avg_refs             47.276370                       # Average number of references to valid blocks.
system.cpu.dcache.tags.warmup_cycle            233000                       # Cycle when the warmup percentage was hit.
system.cpu.dcache.tags.occ_blocks::.cpu.data   997.051087                       # Average occupied blocks per requestor
system.cpu.dcache.tags.occ_percent::.cpu.data     0.973683                       # Average percentage of cache occupancy
system.cpu.dcache.tags.occ_percent::total     0.973683                       # Average percentage of cache occupancy
system.cpu.dcache.tags.occ_task_id_blocks::1024         1024                       # Occupied blocks per task id
system.cpu.dcache.tags.age_task_id_blocks_1024::0           55                       # Occupied blocks per task id
system.cpu.dcache.tags.age_task_id_blocks_1024::1          483                       # Occupied blocks per task id
system.cpu.dcache.tags.age_task_id_blocks_1024::2          486                       # Occupied blocks per task id
system.cpu.dcache.tags.occ_task_id_percent::1024            1                       # Percentage of cache occupancy per task id
system.cpu.dcache.tags.tag_accesses          51275461                       # Number of tag accesses
system.cpu.dcache.tags.data_accesses         51275461                       # Number of data accesses
system.cpu.itb.walker.pwrStateResidencyTicks::UNDEFINED  29918013000                       # Cumulative time (in ticks) in various power states
system.cpu.itb.stage2_mmu.stage2_tlb.walker.pwrStateResidencyTicks::UNDEFINED  29918013000                       # Cumulative time (in ticks) in various power states

---------- End Simulation Statistics   ----------
