
---------- Begin Simulation Statistics ----------
final_tick                                13293141000                       # Number of ticks from beginning of simulation (restored from checkpoints and never reset)
host_inst_rate                                 278844                       # Simulator instruction rate (inst/s)
host_mem_usage                                 734952                       # Number of bytes of host memory used
host_op_rate                                   287498                       # Simulator op (including micro ops) rate (op/s)
host_seconds                                    35.86                       # Real time elapsed on the host
host_tick_rate                              370666609                       # Simulator tick rate (ticks/s)
sim_freq                                 1000000000000                       # Frequency of simulated ticks
sim_insts                                    10000001                       # Number of instructions simulated
sim_ops                                      10310462                       # Number of ops (including micro ops) simulated
sim_seconds                                  0.013293                       # Number of seconds simulated
sim_ticks                                 13293141000                       # Number of ticks simulated
system.cpu.branchPred.BTBCorrect                    0                       # Number of correct BTB predictions (this stat may not work properly.
system.cpu.branchPred.BTBHitPct             80.063288                       # BTB Hit Percentage
system.cpu.branchPred.BTBHits                  422783                       # Number of BTB hits
system.cpu.branchPred.BTBLookups               528061                       # Number of BTB lookups
system.cpu.branchPred.RASInCorrect                 19                       # Number of incorrect RAS predictions.
system.cpu.branchPred.condIncorrect             39033                       # Number of conditional branches incorrect
system.cpu.branchPred.condPredicted            550501                       # Number of conditional branches predicted
system.cpu.branchPred.indirectHits              12031                       # Number of indirect target hits.
system.cpu.branchPred.indirectLookups           81861                       # Number of indirect predictor lookups.
system.cpu.branchPred.indirectMisses            69830                       # Number of indirect misses.
system.cpu.branchPred.lookups                  740082                       # Number of BP lookups
system.cpu.branchPred.usedRAS                   45573                       # Number of times the RAS was used to get a target.
system.cpu.branchPredindirectMispredicted         4721                       # Number of mispredicted indirect branches.
system.cpu.committedInsts                    10000001                       # Number of instructions committed
system.cpu.committedOps                      10310462                       # Number of ops (including micro ops) committed
system.cpu.cpi                               1.329314                       # CPI: cycles per instruction
system.cpu.discardedOps                        100414                       # Number of ops (including micro ops) which were discarded before commit
system.cpu.dtb.accesses                             0                       # DTB accesses
system.cpu.dtb.align_faults                         0                       # Number of TLB faults due to alignment restrictions
system.cpu.dtb.domain_faults                        0                       # Number of TLB faults due to domain restrictions
system.cpu.dtb.flush_entries                        0                       # Number of entries that have been flushed from TLB
system.cpu.dtb.flush_tlb                            0                       # Number of times complete TLB was flushed
system.cpu.dtb.flush_tlb_asid                       0                       # Number of times TLB was flushed by ASID
system.cpu.dtb.flush_tlb_mva                        0                       # Number of times TLB was flushed by MVA
system.cpu.dtb.flush_tlb_mva_asid                   0                       # Number of times TLB was flushed by MVA & ASID
system.cpu.dtb.hits                                 0                       # DTB hits
system.cpu.dtb.inst_accesses                        0                       # ITB inst accesses
system.cpu.dtb.inst_hits                            0                       # ITB inst hits
system.cpu.dtb.inst_misses                          0                       # ITB inst misses
system.cpu.dtb.misses                               0                       # DTB misses
system.cpu.dtb.perms_faults                         0                       # Number of TLB faults due to permissions restrictions
system.cpu.dtb.prefetch_faults                      0                       # Number of TLB faults due to prefetch
system.cpu.dtb.read_accesses                        0                       # DTB read accesses
system.cpu.dtb.read_hits                            0                       # DTB read hits
system.cpu.dtb.read_misses                          0                       # DTB read misses
system.cpu.dtb.stage2_mmu.stage2_tlb.accesses            0                       # DTB accesses
system.cpu.dtb.stage2_mmu.stage2_tlb.align_faults            0                       # Number of TLB faults due to alignment restrictions
system.cpu.dtb.stage2_mmu.stage2_tlb.domain_faults            0                       # Number of TLB faults due to domain restrictions
system.cpu.dtb.stage2_mmu.stage2_tlb.flush_entries            0                       # Number of entries that have been flushed from TLB
system.cpu.dtb.stage2_mmu.stage2_tlb.flush_tlb            0                       # Number of times complete TLB was flushed
system.cpu.dtb.stage2_mmu.stage2_tlb.flush_tlb_asid            0                       # Number of times TLB was flushed by ASID
system.cpu.dtb.stage2_mmu.stage2_tlb.flush_tlb_mva            0                       # Number of times TLB was flushed by MVA
system.cpu.dtb.stage2_mmu.stage2_tlb.flush_tlb_mva_asid            0                       # Number of times TLB was flushed by MVA & ASID
system.cpu.dtb.stage2_mmu.stage2_tlb.hits            0                       # DTB hits
system.cpu.dtb.stage2_mmu.stage2_tlb.inst_accesses            0                       # ITB inst accesses
system.cpu.dtb.stage2_mmu.stage2_tlb.inst_hits            0                       # ITB inst hits
system.cpu.dtb.stage2_mmu.stage2_tlb.inst_misses            0                       # ITB inst misses
system.cpu.dtb.stage2_mmu.stage2_tlb.misses            0                       # DTB misses
system.cpu.dtb.stage2_mmu.stage2_tlb.perms_faults            0                       # Number of TLB faults due to permissions restrictions
system.cpu.dtb.stage2_mmu.stage2_tlb.prefetch_faults            0                       # Number of TLB faults due to prefetch
system.cpu.dtb.stage2_mmu.stage2_tlb.read_accesses            0                       # DTB read accesses
system.cpu.dtb.stage2_mmu.stage2_tlb.read_hits            0                       # DTB read hits
system.cpu.dtb.stage2_mmu.stage2_tlb.read_misses            0                       # DTB read misses
system.cpu.dtb.stage2_mmu.stage2_tlb.walker.walkRequestOrigin_Requested::Data            0                       # Table walker requests started/completed, data/inst
system.cpu.dtb.stage2_mmu.stage2_tlb.walker.walkRequestOrigin_Requested::Inst            0                       # Table walker requests started/completed, data/inst
system.cpu.dtb.stage2_mmu.stage2_tlb.walker.walkRequestOrigin_Requested::total            0                       # Table walker requests started/completed, data/inst
system.cpu.dtb.stage2_mmu.stage2_tlb.walker.walkRequestOrigin_Completed::Data            0                       # Table walker requests started/completed, data/inst
system.cpu.dtb.stage2_mmu.stage2_tlb.walker.walkRequestOrigin_Completed::Inst            0                       # Table walker requests started/completed, data/inst
system.cpu.dtb.stage2_mmu.stage2_tlb.walker.walkRequestOrigin_Completed::total            0                       # Table walker requests started/completed, data/inst
system.cpu.dtb.stage2_mmu.stage2_tlb.walker.walkRequestOrigin::total            0                       # Table walker requests started/completed, data/inst
system.cpu.dtb.stage2_mmu.stage2_tlb.walker.walks            0                       # Table walker walks requested
system.cpu.dtb.stage2_mmu.stage2_tlb.write_accesses            0                       # DTB write accesses
system.cpu.dtb.stage2_mmu.stage2_tlb.write_hits            0                       # DTB write hits
system.cpu.dtb.stage2_mmu.stage2_tlb.write_misses            0                       # DTB write misses
system.cpu.dtb.walker.walkRequestOrigin_Requested::Data            0                       # Table walker requests started/completed, data/inst
system.cpu.dtb.walker.walkRequestOrigin_Requested::Inst            0                       # Table walker requests started/completed, data/inst
system.cpu.dtb.walker.walkRequestOrigin_Requested::total            0                       # Table walker requests started/completed, data/inst
system.cpu.dtb.walker.walkRequestOrigin_Completed::Data            0                       # Table walker requests started/completed, data/inst
system.cpu.dtb.walker.walkRequestOrigin_Completed::Inst            0                       # Table walker requests started/completed, data/inst
system.cpu.dtb.walker.walkRequestOrigin_Completed::total            0                       # Table walker requests started/completed, data/inst
system.cpu.dtb.walker.walkRequestOrigin::total            0                       # Table walker requests started/completed, data/inst
system.cpu.dtb.walker.walks                         0                       # Table walker walks requested
system.cpu.dtb.write_accesses                       0                       # DTB write accesses
system.cpu.dtb.write_hits                           0                       # DTB write hits
system.cpu.dtb.write_misses                         0                       # DTB write misses
system.cpu.fetch2.amo_instructions                  0                       # Number of memory atomic instructions successfully decoded
system.cpu.fetch2.fp_instructions                   0                       # Number of floating point instructions successfully decoded
system.cpu.fetch2.int_instructions            4910483                       # Number of integer instructions successfully decoded
system.cpu.fetch2.load_instructions           3790706                       # Number of memory load instructions successfully decoded
system.cpu.fetch2.store_instructions           624206                       # Number of memory store instructions successfully decoded
system.cpu.fetch2.vec_instructions                  0                       # Number of SIMD instructions successfully decoded
system.cpu.idleCycles                         1301254                       # Total number of cycles that the object has spent stopped
system.cpu.ipc                               0.752268                       # IPC: instructions per cycle
system.cpu.itb.accesses                             0                       # DTB accesses
system.cpu.itb.align_faults                         0                       # Number of TLB faults due to alignment restrictions
system.cpu.itb.domain_faults                        0                       # Number of TLB faults due to domain restrictions
system.cpu.itb.flush_entries                        0                       # Number of entries that have been flushed from TLB
system.cpu.itb.flush_tlb                            0                       # Number of times complete TLB was flushed
system.cpu.itb.flush_tlb_asid                       0                       # Number of times TLB was flushed by ASID
system.cpu.itb.flush_tlb_mva                        0                       # Number of times TLB was flushed by MVA
system.cpu.itb.flush_tlb_mva_asid                   0                       # Number of times TLB was flushed by MVA & ASID
system.cpu.itb.hits                                 0                       # DTB hits
system.cpu.itb.inst_accesses                        0                       # ITB inst accesses
system.cpu.itb.inst_hits                            0                       # ITB inst hits
system.cpu.itb.inst_misses                          0                       # ITB inst misses
system.cpu.itb.misses                               0                       # DTB misses
system.cpu.itb.perms_faults                         0                       # Number of TLB faults due to permissions restrictions
system.cpu.itb.prefetch_faults                      0                       # Number of TLB faults due to prefetch
system.cpu.itb.read_accesses                        0                       # DTB read accesses
system.cpu.itb.read_hits                            0                       # DTB read hits
system.cpu.itb.read_misses                          0                       # DTB read misses
system.cpu.itb.stage2_mmu.stage2_tlb.accesses            0                       # DTB accesses
system.cpu.itb.stage2_mmu.stage2_tlb.align_faults            0                       # Number of TLB faults due to alignment restrictions
system.cpu.itb.stage2_mmu.stage2_tlb.domain_faults            0                       # Number of TLB faults due to domain restrictions
system.cpu.itb.stage2_mmu.stage2_tlb.flush_entries            0                       # Number of entries that have been flushed from TLB
system.cpu.itb.stage2_mmu.stage2_tlb.flush_tlb            0                       # Number of times complete TLB was flushed
system.cpu.itb.stage2_mmu.stage2_tlb.flush_tlb_asid            0                       # Number of times TLB was flushed by ASID
system.cpu.itb.stage2_mmu.stage2_tlb.flush_tlb_mva            0                       # Number of times TLB was flushed by MVA
system.cpu.itb.stage2_mmu.stage2_tlb.flush_tlb_mva_asid            0                       # Number of times TLB was flushed by MVA & ASID
system.cpu.itb.stage2_mmu.stage2_tlb.hits            0                       # DTB hits
system.cpu.itb.stage2_mmu.stage2_tlb.inst_accesses            0                       # ITB inst accesses
system.cpu.itb.stage2_mmu.stage2_tlb.inst_hits            0                       # ITB inst hits
system.cpu.itb.stage2_mmu.stage2_tlb.inst_misses            0                       # ITB inst misses
system.cpu.itb.stage2_mmu.stage2_tlb.misses            0                       # DTB misses
system.cpu.itb.stage2_mmu.stage2_tlb.perms_faults            0                       # Number of TLB faults due to permissions restrictions
system.cpu.itb.stage2_mmu.stage2_tlb.prefetch_faults            0                       # Number of TLB faults due to prefetch
system.cpu.itb.stage2_mmu.stage2_tlb.read_accesses            0                       # DTB read accesses
system.cpu.itb.stage2_mmu.stage2_tlb.read_hits            0                       # DTB read hits
system.cpu.itb.stage2_mmu.stage2_tlb.read_misses            0                       # DTB read misses
system.cpu.itb.stage2_mmu.stage2_tlb.walker.walkRequestOrigin_Requested::Data            0                       # Table walker requests started/completed, data/inst
system.cpu.itb.stage2_mmu.stage2_tlb.walker.walkRequestOrigin_Requested::Inst            0                       # Table walker requests started/completed, data/inst
system.cpu.itb.stage2_mmu.stage2_tlb.walker.walkRequestOrigin_Requested::total            0                       # Table walker requests started/completed, data/inst
system.cpu.itb.stage2_mmu.stage2_tlb.walker.walkRequestOrigin_Completed::Data            0                       # Table walker requests started/completed, data/inst
system.cpu.itb.stage2_mmu.stage2_tlb.walker.walkRequestOrigin_Completed::Inst            0                       # Table walker requests started/completed, data/inst
system.cpu.itb.stage2_mmu.stage2_tlb.walker.walkRequestOrigin_Completed::total            0                       # Table walker requests started/completed, data/inst
system.cpu.itb.stage2_mmu.stage2_tlb.walker.walkRequestOrigin::total            0                       # Table walker requests started/completed, data/inst
system.cpu.itb.stage2_mmu.stage2_tlb.walker.walks            0                       # Table walker walks requested
system.cpu.itb.stage2_mmu.stage2_tlb.write_accesses            0                       # DTB write accesses
system.cpu.itb.stage2_mmu.stage2_tlb.write_hits            0                       # DTB write hits
system.cpu.itb.stage2_mmu.stage2_tlb.write_misses            0                       # DTB write misses
system.cpu.itb.walker.walkRequestOrigin_Requested::Data            0                       # Table walker requests started/completed, data/inst
system.cpu.itb.walker.walkRequestOrigin_Requested::Inst            0                       # Table walker requests started/completed, data/inst
system.cpu.itb.walker.walkRequestOrigin_Requested::total            0                       # Table walker requests started/completed, data/inst
system.cpu.itb.walker.walkRequestOrigin_Completed::Data            0                       # Table walker requests started/completed, data/inst
system.cpu.itb.walker.walkRequestOrigin_Completed::Inst            0                       # Table walker requests started/completed, data/inst
system.cpu.itb.walker.walkRequestOrigin_Completed::total            0                       # Table walker requests started/completed, data/inst
system.cpu.itb.walker.walkRequestOrigin::total            0                       # Table walker requests started/completed, data/inst
system.cpu.itb.walker.walks                         0                       # Table walker walks requested
system.cpu.itb.write_accesses                       0                       # DTB write accesses
system.cpu.itb.write_hits                           0                       # DTB write hits
system.cpu.itb.write_misses                         0                       # DTB write misses
system.cpu.numCycles                         13293141                       # number of cpu cycles simulated
system.cpu.numFetchSuspends                         0                       # Number of times Execute suspended instruction fetching
system.cpu.numWorkItemsCompleted                    0                       # number of work items this cpu completed
system.cpu.numWorkItemsStarted                      0                       # number of work items this cpu started
system.cpu.op_class_0::No_OpClass                   0      0.00%      0.00% # Class of committed instruction
system.cpu.op_class_0::IntAlu                 5703517     55.32%     55.32% # Class of committed instruction
system.cpu.op_class_0::IntMult                  27933      0.27%     55.59% # Class of committed instruction
system.cpu.op_class_0::IntDiv                       0      0.00%     55.59% # Class of committed instruction
system.cpu.op_class_0::FloatAdd                     0      0.00%     55.59% # Class of committed instruction
system.cpu.op_class_0::FloatCmp                     0      0.00%     55.59% # Class of committed instruction
system.cpu.op_class_0::FloatCvt                     0      0.00%     55.59% # Class of committed instruction
system.cpu.op_class_0::FloatMult                    0      0.00%     55.59% # Class of committed instruction
system.cpu.op_class_0::FloatMultAcc                 0      0.00%     55.59% # Class of committed instruction
system.cpu.op_class_0::FloatDiv                     0      0.00%     55.59% # Class of committed instruction
system.cpu.op_class_0::FloatMisc                    0      0.00%     55.59% # Class of committed instruction
system.cpu.op_class_0::FloatSqrt                    0      0.00%     55.59% # Class of committed instruction
system.cpu.op_class_0::SimdAdd                    376      0.00%     55.59% # Class of committed instruction
system.cpu.op_class_0::SimdAddAcc                   0      0.00%     55.59% # Class of committed instruction
system.cpu.op_class_0::SimdAlu                    466      0.00%     55.60% # Class of committed instruction
system.cpu.op_class_0::SimdCmp                    378      0.00%     55.60% # Class of committed instruction
system.cpu.op_class_0::SimdCvt                      0      0.00%     55.60% # Class of committed instruction
system.cpu.op_class_0::SimdMisc                    53      0.00%     55.60% # Class of committed instruction
system.cpu.op_class_0::SimdMult                     0      0.00%     55.60% # Class of committed instruction
system.cpu.op_class_0::SimdMultAcc                  0      0.00%     55.60% # Class of committed instruction
system.cpu.op_class_0::SimdShift                    0      0.00%     55.60% # Class of committed instruction
system.cpu.op_class_0::SimdShiftAcc                 0      0.00%     55.60% # Class of committed instruction
system.cpu.op_class_0::SimdDiv                      0      0.00%     55.60% # Class of committed instruction
system.cpu.op_class_0::SimdSqrt                     0      0.00%     55.60% # Class of committed instruction
system.cpu.op_class_0::SimdFloatAdd             38175      0.37%     55.97% # Class of committed instruction
system.cpu.op_class_0::SimdFloatAlu                 0      0.00%     55.97% # Class of committed instruction
system.cpu.op_class_0::SimdFloatCmp             30516      0.30%     56.27% # Class of committed instruction
system.cpu.op_class_0::SimdFloatCvt             23769      0.23%     56.50% # Class of committed instruction
system.cpu.op_class_0::SimdFloatDiv              8755      0.08%     56.58% # Class of committed instruction
system.cpu.op_class_0::SimdFloatMisc            70752      0.69%     57.27% # Class of committed instruction
system.cpu.op_class_0::SimdFloatMult            10139      0.10%     57.37% # Class of committed instruction
system.cpu.op_class_0::SimdFloatMultAcc         11115      0.11%     57.48% # Class of committed instruction
system.cpu.op_class_0::SimdFloatSqrt                0      0.00%     57.48% # Class of committed instruction
system.cpu.op_class_0::SimdReduceAdd                0      0.00%     57.48% # Class of committed instruction
system.cpu.op_class_0::SimdReduceAlu                0      0.00%     57.48% # Class of committed instruction
system.cpu.op_class_0::SimdReduceCmp                0      0.00%     57.48% # Class of committed instruction
system.cpu.op_class_0::SimdFloatReduceAdd            0      0.00%     57.48% # Class of committed instruction
system.cpu.op_class_0::SimdFloatReduceCmp            0      0.00%     57.48% # Class of committed instruction
system.cpu.op_class_0::SimdAes                      0      0.00%     57.48% # Class of committed instruction
system.cpu.op_class_0::SimdAesMix                   0      0.00%     57.48% # Class of committed instruction
system.cpu.op_class_0::SimdSha1Hash                 0      0.00%     57.48% # Class of committed instruction
system.cpu.op_class_0::SimdSha1Hash2                0      0.00%     57.48% # Class of committed instruction
system.cpu.op_class_0::SimdSha256Hash               0      0.00%     57.48% # Class of committed instruction
system.cpu.op_class_0::SimdSha256Hash2              0      0.00%     57.48% # Class of committed instruction
system.cpu.op_class_0::SimdShaSigma2                0      0.00%     57.48% # Class of committed instruction
system.cpu.op_class_0::SimdShaSigma3                0      0.00%     57.48% # Class of committed instruction
system.cpu.op_class_0::SimdPredAlu                  0      0.00%     57.48% # Class of committed instruction
system.cpu.op_class_0::MemRead                3584531     34.77%     92.24% # Class of committed instruction
system.cpu.op_class_0::MemWrite                799987      7.76%    100.00% # Class of committed instruction
system.cpu.op_class_0::FloatMemRead                 0      0.00%    100.00% # Class of committed instruction
system.cpu.op_class_0::FloatMemWrite                0      0.00%    100.00% # Class of committed instruction
system.cpu.op_class_0::IprAccess                    0      0.00%    100.00% # Class of committed instruction
system.cpu.op_class_0::InstPrefetch                 0      0.00%    100.00% # Class of committed instruction
system.cpu.op_class_0::total                 10310462                       # Class of committed instruction
system.cpu.tickCycles                        11991887                       # Number of cycles that the object actually ticked
system.cpu.workload.numSyscalls                    32                       # Number of system calls
system.membus.snoop_filter.hit_multi_requests            0                       # Number of requests hitting in the snoop filter with multiple (>1) holders of the requested data.
system.membus.snoop_filter.hit_multi_snoops            0                       # Number of snoops hitting in the snoop filter with multiple (>1) holders of the requested data.
system.membus.snoop_filter.hit_single_requests            0                       # Number of requests hitting in the snoop filter with a single holder of the requested data.
system.membus.snoop_filter.hit_single_snoops            0                       # Number of snoops hitting in the snoop filter with a single holder of the requested data.
system.membus.snoop_filter.tot_requests         16451                       # Total number of requests made to the snoop filter.
system.membus.snoop_filter.tot_snoops               0                       # Total number of snoops made to the snoop filter.
system.tol2bus.snoop_filter.hit_multi_requests          121                       # Number of requests hitting in the snoop filter with multiple (>1) holders of the requested data.
system.tol2bus.snoop_filter.hit_multi_snoops            0                       # Number of snoops hitting in the snoop filter with multiple (>1) holders of the requested data.
system.tol2bus.snoop_filter.hit_single_requests        15279                       # Number of requests hitting in the snoop filter with a single holder of the requested data.
system.tol2bus.snoop_filter.hit_single_snoops            0                       # Number of snoops hitting in the snoop filter with a single holder of the requested data.
system.tol2bus.snoop_filter.tot_requests        40610                       # Total number of requests made to the snoop filter.
system.tol2bus.snoop_filter.tot_snoops              0                       # Total number of snoops made to the snoop filter.
system.membus.pwrStateResidencyTicks::UNDEFINED  13293141000                       # Cumulative time (in ticks) in various power states
system.membus.trans_dist::ReadResp               5240                       # Transaction distribution
system.membus.trans_dist::ReadExReq             11200                       # Transaction distribution
system.membus.trans_dist::ReadExResp            11200                       # Transaction distribution
system.membus.trans_dist::ReadSharedReq          5240                       # Transaction distribution
system.membus.trans_dist::InvalidateReq            11                       # Transaction distribution
system.membus.pkt_count_system.l2.mem_side::system.mem_ctrls.port        32891                       # Packet count per connected master and slave (bytes)
system.membus.pkt_count::total                  32891                       # Packet count per connected master and slave (bytes)
system.membus.pkt_size_system.l2.mem_side::system.mem_ctrls.port       263040                       # Cumulative packet size per connected master and slave (bytes)
system.membus.pkt_size::total                  263040                       # Cumulative packet size per connected master and slave (bytes)
system.membus.snoops                                0                       # Total snoops (count)
system.membus.snoopTraffic                          0                       # Total snoop traffic (bytes)
system.membus.snoop_fanout::samples             16451                       # Request fanout histogram
system.membus.snoop_fanout::mean                    0                       # Request fanout histogram
system.membus.snoop_fanout::stdev                   0                       # Request fanout histogram
system.membus.snoop_fanout::underflows              0      0.00%      0.00% # Request fanout histogram
system.membus.snoop_fanout::0                   16451    100.00%    100.00% # Request fanout histogram
system.membus.snoop_fanout::1                       0      0.00%    100.00% # Request fanout histogram
system.membus.snoop_fanout::overflows               0      0.00%    100.00% # Request fanout histogram
system.membus.snoop_fanout::min_value               0                       # Request fanout histogram
system.membus.snoop_fanout::max_value               0                       # Request fanout histogram
system.membus.snoop_fanout::total               16451                       # Request fanout histogram
system.membus.respLayer1.occupancy           37820250                       # Layer occupancy (ticks)
system.membus.respLayer1.utilization              0.3                       # Layer utilization (%)
system.membus.reqLayer0.occupancy            16451000                       # Layer occupancy (ticks)
system.membus.reqLayer0.utilization               0.1                       # Layer utilization (%)
system.tol2bus.pwrStateResidencyTicks::UNDEFINED  13293141000                       # Cumulative time (in ticks) in various power states
system.tol2bus.trans_dist::ReadResp              9650                       # Transaction distribution
system.tol2bus.trans_dist::WritebackDirty        11467                       # Transaction distribution
system.tol2bus.trans_dist::WritebackClean         2383                       # Transaction distribution
system.tol2bus.trans_dist::CleanEvict            1412                       # Transaction distribution
system.tol2bus.trans_dist::ReadExReq            15687                       # Transaction distribution
system.tol2bus.trans_dist::ReadExResp           15687                       # Transaction distribution
system.tol2bus.trans_dist::ReadCleanReq          4277                       # Transaction distribution
system.tol2bus.trans_dist::ReadSharedReq         5373                       # Transaction distribution
system.tol2bus.trans_dist::InvalidateReq           11                       # Transaction distribution
system.tol2bus.trans_dist::InvalidateResp           11                       # Transaction distribution
system.tol2bus.pkt_count_system.cpu.icache.mem_side::system.l2.cpu_side        10937                       # Packet count per connected master and slave (bytes)
system.tol2bus.pkt_count_system.cpu.dcache.mem_side::system.l2.cpu_side        55021                       # Packet count per connected master and slave (bytes)
system.tol2bus.pkt_count::total                 65958                       # Packet count per connected master and slave (bytes)
system.tol2bus.pkt_size_system.cpu.icache.mem_side::system.l2.cpu_side       106560                       # Cumulative packet size per connected master and slave (bytes)
system.tol2bus.pkt_size_system.cpu.dcache.mem_side::system.l2.cpu_side       520432                       # Cumulative packet size per connected master and slave (bytes)
system.tol2bus.pkt_size::total                 626992                       # Cumulative packet size per connected master and slave (bytes)
system.tol2bus.snoops                               0                       # Total snoops (count)
system.tol2bus.snoopTraffic                         0                       # Total snoop traffic (bytes)
system.tol2bus.snoop_fanout::samples            25348                       # Request fanout histogram
system.tol2bus.snoop_fanout::mean            0.005444                       # Request fanout histogram
system.tol2bus.snoop_fanout::stdev           0.073585                       # Request fanout histogram
system.tol2bus.snoop_fanout::underflows             0      0.00%      0.00% # Request fanout histogram
system.tol2bus.snoop_fanout::0                  25210     99.46%     99.46% # Request fanout histogram
system.tol2bus.snoop_fanout::1                    138      0.54%    100.00% # Request fanout histogram
system.tol2bus.snoop_fanout::2                      0      0.00%    100.00% # Request fanout histogram
system.tol2bus.snoop_fanout::overflows              0      0.00%    100.00% # Request fanout histogram
system.tol2bus.snoop_fanout::min_value              0                       # Request fanout histogram
system.tol2bus.snoop_fanout::max_value              1                       # Request fanout histogram
system.tol2bus.snoop_fanout::total              25348                       # Request fanout histogram
system.tol2bus.reqLayer0.occupancy           54460000                       # Layer occupancy (ticks)
system.tol2bus.reqLayer0.utilization              0.4                       # Layer utilization (%)
system.tol2bus.respLayer1.occupancy          42138992                       # Layer occupancy (ticks)
system.tol2bus.respLayer1.utilization             0.3                       # Layer utilization (%)
system.tol2bus.respLayer0.occupancy           8554999                       # Layer occupancy (ticks)
system.tol2bus.respLayer0.utilization             0.1                       # Layer utilization (%)
system.voltage_domain.voltage                       1                       # Voltage in Volts
system.clk_domain.clock                          1000                       # Clock period in ticks
system.l2.pwrStateResidencyTicks::UNDEFINED  13293141000                       # Cumulative time (in ticks) in various power states
system.l2.demand_hits::.cpu.inst                  701                       # number of demand (read+write) hits
system.l2.demand_hits::.cpu.data                 8187                       # number of demand (read+write) hits
system.l2.demand_hits::total                     8888                       # number of demand (read+write) hits
system.l2.overall_hits::.cpu.inst                 701                       # number of overall hits
system.l2.overall_hits::.cpu.data                8187                       # number of overall hits
system.l2.overall_hits::total                    8888                       # number of overall hits
system.l2.demand_misses::.cpu.inst               3576                       # number of demand (read+write) misses
system.l2.demand_misses::.cpu.data              12873                       # number of demand (read+write) misses
system.l2.demand_misses::total                  16449                       # number of demand (read+write) misses
system.l2.overall_misses::.cpu.inst              3576                       # number of overall misses
system.l2.overall_misses::.cpu.data             12873                       # number of overall misses
system.l2.overall_misses::total                 16449                       # number of overall misses
system.l2.demand_miss_latency::.cpu.inst    342587000                       # number of demand (read+write) miss cycles
system.l2.demand_miss_latency::.cpu.data   1239939000                       # number of demand (read+write) miss cycles
system.l2.demand_miss_latency::total       1582526000                       # number of demand (read+write) miss cycles
system.l2.overall_miss_latency::.cpu.inst    342587000                       # number of overall miss cycles
system.l2.overall_miss_latency::.cpu.data   1239939000                       # number of overall miss cycles
system.l2.overall_miss_latency::total      1582526000                       # number of overall miss cycles
system.l2.demand_accesses::.cpu.inst             4277                       # number of demand (read+write) accesses
system.l2.demand_accesses::.cpu.data            21060                       # number of demand (read+write) accesses
system.l2.demand_accesses::total                25337                       # number of demand (read+write) accesses
system.l2.overall_accesses::.cpu.inst            4277                       # number of overall (read+write) accesses
system.l2.overall_accesses::.cpu.data           21060                       # number of overall (read+write) accesses
system.l2.overall_accesses::total               25337                       # number of overall (read+write) accesses
system.l2.demand_miss_rate::.cpu.inst        0.836100                       # miss rate for demand accesses
system.l2.demand_miss_rate::.cpu.data        0.611254                       # miss rate for demand accesses
system.l2.demand_miss_rate::total            0.649209                       # miss rate for demand accesses
system.l2.overall_miss_rate::.cpu.inst       0.836100                       # miss rate for overall accesses
system.l2.overall_miss_rate::.cpu.data       0.611254                       # miss rate for overall accesses
system.l2.overall_miss_rate::total           0.649209                       # miss rate for overall accesses
system.l2.demand_avg_miss_latency::.cpu.inst 95801.733781                       # average overall miss latency
system.l2.demand_avg_miss_latency::.cpu.data 96320.904218                       # average overall miss latency
system.l2.demand_avg_miss_latency::total 96208.036963                       # average overall miss latency
system.l2.overall_avg_miss_latency::.cpu.inst 95801.733781                       # average overall miss latency
system.l2.overall_avg_miss_latency::.cpu.data 96320.904218                       # average overall miss latency
system.l2.overall_avg_miss_latency::total 96208.036963                       # average overall miss latency
system.l2.blocked_cycles::no_mshrs                  0                       # number of cycles access was blocked
system.l2.blocked_cycles::no_targets                0                       # number of cycles access was blocked
system.l2.blocked::no_mshrs                         0                       # number of cycles access was blocked
system.l2.blocked::no_targets                       0                       # number of cycles access was blocked
system.l2.avg_blocked_cycles::no_mshrs            nan                       # average number of cycles each access was blocked
system.l2.avg_blocked_cycles::no_targets          nan                       # average number of cycles each access was blocked
system.l2.demand_mshr_hits::.cpu.inst               1                       # number of demand (read+write) MSHR hits
system.l2.demand_mshr_hits::.cpu.data               8                       # number of demand (read+write) MSHR hits
system.l2.demand_mshr_hits::total                   9                       # number of demand (read+write) MSHR hits
system.l2.overall_mshr_hits::.cpu.inst              1                       # number of overall MSHR hits
system.l2.overall_mshr_hits::.cpu.data              8                       # number of overall MSHR hits
system.l2.overall_mshr_hits::total                  9                       # number of overall MSHR hits
system.l2.demand_mshr_misses::.cpu.inst          3575                       # number of demand (read+write) MSHR misses
system.l2.demand_mshr_misses::.cpu.data         12865                       # number of demand (read+write) MSHR misses
system.l2.demand_mshr_misses::total             16440                       # number of demand (read+write) MSHR misses
system.l2.overall_mshr_misses::.cpu.inst         3575                       # number of overall MSHR misses
system.l2.overall_mshr_misses::.cpu.data        12865                       # number of overall MSHR misses
system.l2.overall_mshr_misses::total            16440                       # number of overall MSHR misses
system.l2.demand_mshr_miss_latency::.cpu.inst    271006000                       # number of demand (read+write) MSHR miss cycles
system.l2.demand_mshr_miss_latency::.cpu.data    981967000                       # number of demand (read+write) MSHR miss cycles
system.l2.demand_mshr_miss_latency::total   1252973000                       # number of demand (read+write) MSHR miss cycles
system.l2.overall_mshr_miss_latency::.cpu.inst    271006000                       # number of overall MSHR miss cycles
system.l2.overall_mshr_miss_latency::.cpu.data    981967000                       # number of overall MSHR miss cycles
system.l2.overall_mshr_miss_latency::total   1252973000                       # number of overall MSHR miss cycles
system.l2.demand_mshr_miss_rate::.cpu.inst     0.835866                       # mshr miss rate for demand accesses
system.l2.demand_mshr_miss_rate::.cpu.data     0.610874                       # mshr miss rate for demand accesses
system.l2.demand_mshr_miss_rate::total       0.648853                       # mshr miss rate for demand accesses
system.l2.overall_mshr_miss_rate::.cpu.inst     0.835866                       # mshr miss rate for overall accesses
system.l2.overall_mshr_miss_rate::.cpu.data     0.610874                       # mshr miss rate for overall accesses
system.l2.overall_mshr_miss_rate::total      0.648853                       # mshr miss rate for overall accesses
system.l2.demand_avg_mshr_miss_latency::.cpu.inst 75805.874126                       # average overall mshr miss latency
system.l2.demand_avg_mshr_miss_latency::.cpu.data 76328.565876                       # average overall mshr miss latency
system.l2.demand_avg_mshr_miss_latency::total 76214.902676                       # average overall mshr miss latency
system.l2.overall_avg_mshr_miss_latency::.cpu.inst 75805.874126                       # average overall mshr miss latency
system.l2.overall_avg_mshr_miss_latency::.cpu.data 76328.565876                       # average overall mshr miss latency
system.l2.overall_avg_mshr_miss_latency::total 76214.902676                       # average overall mshr miss latency
system.l2.replacements                              0                       # number of replacements
system.l2.WritebackDirty_hits::.writebacks        11467                       # number of WritebackDirty hits
system.l2.WritebackDirty_hits::total            11467                       # number of WritebackDirty hits
system.l2.WritebackDirty_accesses::.writebacks        11467                       # number of WritebackDirty accesses(hits+misses)
system.l2.WritebackDirty_accesses::total        11467                       # number of WritebackDirty accesses(hits+misses)
system.l2.WritebackClean_hits::.writebacks         2330                       # number of WritebackClean hits
system.l2.WritebackClean_hits::total             2330                       # number of WritebackClean hits
system.l2.WritebackClean_accesses::.writebacks         2330                       # number of WritebackClean accesses(hits+misses)
system.l2.WritebackClean_accesses::total         2330                       # number of WritebackClean accesses(hits+misses)
system.l2.ReadExReq_hits::.cpu.data              4487                       # number of ReadExReq hits
system.l2.ReadExReq_hits::total                  4487                       # number of ReadExReq hits
system.l2.ReadExReq_misses::.cpu.data           11200                       # number of ReadExReq misses
system.l2.ReadExReq_misses::total               11200                       # number of ReadExReq misses
system.l2.ReadExReq_miss_latency::.cpu.data   1075020000                       # number of ReadExReq miss cycles
system.l2.ReadExReq_miss_latency::total    1075020000                       # number of ReadExReq miss cycles
system.l2.ReadExReq_accesses::.cpu.data         15687                       # number of ReadExReq accesses(hits+misses)
system.l2.ReadExReq_accesses::total             15687                       # number of ReadExReq accesses(hits+misses)
system.l2.ReadExReq_miss_rate::.cpu.data     0.713967                       # miss rate for ReadExReq accesses
system.l2.ReadExReq_miss_rate::total         0.713967                       # miss rate for ReadExReq accesses
system.l2.ReadExReq_avg_miss_latency::.cpu.data 95983.928571                       # average ReadExReq miss latency
system.l2.ReadExReq_avg_miss_latency::total 95983.928571                       # average ReadExReq miss latency
system.l2.ReadExReq_mshr_misses::.cpu.data        11200                       # number of ReadExReq MSHR misses
system.l2.ReadExReq_mshr_misses::total          11200                       # number of ReadExReq MSHR misses
system.l2.ReadExReq_mshr_miss_latency::.cpu.data    851020000                       # number of ReadExReq MSHR miss cycles
system.l2.ReadExReq_mshr_miss_latency::total    851020000                       # number of ReadExReq MSHR miss cycles
system.l2.ReadExReq_mshr_miss_rate::.cpu.data     0.713967                       # mshr miss rate for ReadExReq accesses
system.l2.ReadExReq_mshr_miss_rate::total     0.713967                       # mshr miss rate for ReadExReq accesses
system.l2.ReadExReq_avg_mshr_miss_latency::.cpu.data 75983.928571                       # average ReadExReq mshr miss latency
system.l2.ReadExReq_avg_mshr_miss_latency::total 75983.928571                       # average ReadExReq mshr miss latency
system.l2.ReadCleanReq_hits::.cpu.inst            701                       # number of ReadCleanReq hits
system.l2.ReadCleanReq_hits::total                701                       # number of ReadCleanReq hits
system.l2.ReadCleanReq_misses::.cpu.inst         3576                       # number of ReadCleanReq misses
system.l2.ReadCleanReq_misses::total             3576                       # number of ReadCleanReq misses
system.l2.ReadCleanReq_miss_latency::.cpu.inst    342587000                       # number of ReadCleanReq miss cycles
system.l2.ReadCleanReq_miss_latency::total    342587000                       # number of ReadCleanReq miss cycles
system.l2.ReadCleanReq_accesses::.cpu.inst         4277                       # number of ReadCleanReq accesses(hits+misses)
system.l2.ReadCleanReq_accesses::total           4277                       # number of ReadCleanReq accesses(hits+misses)
system.l2.ReadCleanReq_miss_rate::.cpu.inst     0.836100                       # miss rate for ReadCleanReq accesses
system.l2.ReadCleanReq_miss_rate::total      0.836100                       # miss rate for ReadCleanReq accesses
system.l2.ReadCleanReq_avg_miss_latency::.cpu.inst 95801.733781                       # average ReadCleanReq miss latency
system.l2.ReadCleanReq_avg_miss_latency::total 95801.733781                       # average ReadCleanReq miss latency
system.l2.ReadCleanReq_mshr_hits::.cpu.inst            1                       # number of ReadCleanReq MSHR hits
system.l2.ReadCleanReq_mshr_hits::total             1                       # number of ReadCleanReq MSHR hits
system.l2.ReadCleanReq_mshr_misses::.cpu.inst         3575                       # number of ReadCleanReq MSHR misses
system.l2.ReadCleanReq_mshr_misses::total         3575                       # number of ReadCleanReq MSHR misses
system.l2.ReadCleanReq_mshr_miss_latency::.cpu.inst    271006000                       # number of ReadCleanReq MSHR miss cycles
system.l2.ReadCleanReq_mshr_miss_latency::total    271006000                       # number of ReadCleanReq MSHR miss cycles
system.l2.ReadCleanReq_mshr_miss_rate::.cpu.inst     0.835866                       # mshr miss rate for ReadCleanReq accesses
system.l2.ReadCleanReq_mshr_miss_rate::total     0.835866                       # mshr miss rate for ReadCleanReq accesses
system.l2.ReadCleanReq_avg_mshr_miss_latency::.cpu.inst 75805.874126                       # average ReadCleanReq mshr miss latency
system.l2.ReadCleanReq_avg_mshr_miss_latency::total 75805.874126                       # average ReadCleanReq mshr miss latency
system.l2.ReadSharedReq_hits::.cpu.data          3700                       # number of ReadSharedReq hits
system.l2.ReadSharedReq_hits::total              3700                       # number of ReadSharedReq hits
system.l2.ReadSharedReq_misses::.cpu.data         1673                       # number of ReadSharedReq misses
system.l2.ReadSharedReq_misses::total            1673                       # number of ReadSharedReq misses
system.l2.ReadSharedReq_miss_latency::.cpu.data    164919000                       # number of ReadSharedReq miss cycles
system.l2.ReadSharedReq_miss_latency::total    164919000                       # number of ReadSharedReq miss cycles
system.l2.ReadSharedReq_accesses::.cpu.data         5373                       # number of ReadSharedReq accesses(hits+misses)
system.l2.ReadSharedReq_accesses::total          5373                       # number of ReadSharedReq accesses(hits+misses)
system.l2.ReadSharedReq_miss_rate::.cpu.data     0.311372                       # miss rate for ReadSharedReq accesses
system.l2.ReadSharedReq_miss_rate::total     0.311372                       # miss rate for ReadSharedReq accesses
system.l2.ReadSharedReq_avg_miss_latency::.cpu.data 98576.808129                       # average ReadSharedReq miss latency
system.l2.ReadSharedReq_avg_miss_latency::total 98576.808129                       # average ReadSharedReq miss latency
system.l2.ReadSharedReq_mshr_hits::.cpu.data            8                       # number of ReadSharedReq MSHR hits
system.l2.ReadSharedReq_mshr_hits::total            8                       # number of ReadSharedReq MSHR hits
system.l2.ReadSharedReq_mshr_misses::.cpu.data         1665                       # number of ReadSharedReq MSHR misses
system.l2.ReadSharedReq_mshr_misses::total         1665                       # number of ReadSharedReq MSHR misses
system.l2.ReadSharedReq_mshr_miss_latency::.cpu.data    130947000                       # number of ReadSharedReq MSHR miss cycles
system.l2.ReadSharedReq_mshr_miss_latency::total    130947000                       # number of ReadSharedReq MSHR miss cycles
system.l2.ReadSharedReq_mshr_miss_rate::.cpu.data     0.309883                       # mshr miss rate for ReadSharedReq accesses
system.l2.ReadSharedReq_mshr_miss_rate::total     0.309883                       # mshr miss rate for ReadSharedReq accesses
system.l2.ReadSharedReq_avg_mshr_miss_latency::.cpu.data 78646.846847                       # average ReadSharedReq mshr miss latency
system.l2.ReadSharedReq_avg_mshr_miss_latency::total 78646.846847                       # average ReadSharedReq mshr miss latency
system.l2.InvalidateReq_misses::.cpu.data           11                       # number of InvalidateReq misses
system.l2.InvalidateReq_misses::total              11                       # number of InvalidateReq misses
system.l2.InvalidateReq_accesses::.cpu.data           11                       # number of InvalidateReq accesses(hits+misses)
system.l2.InvalidateReq_accesses::total            11                       # number of InvalidateReq accesses(hits+misses)
system.l2.InvalidateReq_miss_rate::.cpu.data            1                       # miss rate for InvalidateReq accesses
system.l2.InvalidateReq_miss_rate::total            1                       # miss rate for InvalidateReq accesses
system.l2.InvalidateReq_mshr_misses::.cpu.data           11                       # number of InvalidateReq MSHR misses
system.l2.InvalidateReq_mshr_misses::total           11                       # number of InvalidateReq MSHR misses
system.l2.InvalidateReq_mshr_miss_latency::.cpu.data       319000                       # number of InvalidateReq MSHR miss cycles
system.l2.InvalidateReq_mshr_miss_latency::total       319000                       # number of InvalidateReq MSHR miss cycles
system.l2.InvalidateReq_mshr_miss_rate::.cpu.data            1                       # mshr miss rate for InvalidateReq accesses
system.l2.InvalidateReq_mshr_miss_rate::total            1                       # mshr miss rate for InvalidateReq accesses
system.l2.InvalidateReq_avg_mshr_miss_latency::.cpu.data        29000                       # average InvalidateReq mshr miss latency
system.l2.InvalidateReq_avg_mshr_miss_latency::total        29000                       # average InvalidateReq mshr miss latency
system.l2.tags.pwrStateResidencyTicks::UNDEFINED  13293141000                       # Cumulative time (in ticks) in various power states
system.l2.tags.tagsinuse                 12438.867122                       # Cycle average of tags in use
system.l2.tags.total_refs                       40469                       # Total number of references to valid blocks.
system.l2.tags.sampled_refs                     16451                       # Sample count of references to valid blocks.
system.l2.tags.avg_refs                      2.459972                       # Average number of references to valid blocks.
system.l2.tags.warmup_cycle                     87000                       # Cycle when the warmup percentage was hit.
system.l2.tags.occ_blocks::.writebacks       6.342646                       # Average occupied blocks per requestor
system.l2.tags.occ_blocks::.cpu.inst      3377.951995                       # Average occupied blocks per requestor
system.l2.tags.occ_blocks::.cpu.data      9054.572482                       # Average occupied blocks per requestor
system.l2.tags.occ_percent::.writebacks      0.000024                       # Average percentage of cache occupancy
system.l2.tags.occ_percent::.cpu.inst        0.012886                       # Average percentage of cache occupancy
system.l2.tags.occ_percent::.cpu.data        0.034540                       # Average percentage of cache occupancy
system.l2.tags.occ_percent::total            0.047451                       # Average percentage of cache occupancy
system.l2.tags.occ_task_id_blocks::1024         16451                       # Occupied blocks per task id
system.l2.tags.age_task_id_blocks_1024::2           28                       # Occupied blocks per task id
system.l2.tags.age_task_id_blocks_1024::3         7318                       # Occupied blocks per task id
system.l2.tags.age_task_id_blocks_1024::4         9105                       # Occupied blocks per task id
system.l2.tags.occ_task_id_percent::1024     0.062756                       # Percentage of cache occupancy per task id
system.l2.tags.tag_accesses                    178407                       # Number of tag accesses
system.l2.tags.data_accesses                   178407                       # Number of data accesses
system.cpu_voltage_domain.voltage                   1                       # Voltage in Volts
system.mem_ctrls.pwrStateResidencyTicks::UNDEFINED  13293141000                       # Cumulative time (in ticks) in various power states
system.mem_ctrls.bytes_read::.cpu.inst          57200                       # Number of bytes read from this memory
system.mem_ctrls.bytes_read::.cpu.data         205840                       # Number of bytes read from this memory
system.mem_ctrls.bytes_read::total             263040                       # Number of bytes read from this memory
system.mem_ctrls.bytes_inst_read::.cpu.inst        57200                       # Number of instructions bytes read from this memory
system.mem_ctrls.bytes_inst_read::total         57200                       # Number of instructions bytes read from this memory
system.mem_ctrls.num_reads::.cpu.inst            3575                       # Number of read requests responded to by this memory
system.mem_ctrls.num_reads::.cpu.data           12865                       # Number of read requests responded to by this memory
system.mem_ctrls.num_reads::total               16440                       # Number of read requests responded to by this memory
system.mem_ctrls.bw_read::.cpu.inst           4302971                       # Total read bandwidth from this memory (bytes/s)
system.mem_ctrls.bw_read::.cpu.data          15484677                       # Total read bandwidth from this memory (bytes/s)
system.mem_ctrls.bw_read::total              19787648                       # Total read bandwidth from this memory (bytes/s)
system.mem_ctrls.bw_inst_read::.cpu.inst      4302971                       # Instruction read bandwidth from this memory (bytes/s)
system.mem_ctrls.bw_inst_read::total          4302971                       # Instruction read bandwidth from this memory (bytes/s)
system.mem_ctrls.bw_total::.cpu.inst          4302971                       # Total bandwidth to/from this memory (bytes/s)
system.mem_ctrls.bw_total::.cpu.data         15484677                       # Total bandwidth to/from this memory (bytes/s)
system.mem_ctrls.bw_total::total             19787648                       # Total bandwidth to/from this memory (bytes/s)
system.mem_ctrls.avgPriority_.cpu.inst::samples      3575.00                       # Average QoS priority value for accepted requests
system.mem_ctrls.avgPriority_.cpu.data::samples     12865.00                       # Average QoS priority value for accepted requests
system.mem_ctrls.priorityMinLatency      0.000000018750                       # per QoS priority minimum request to response latency (s)
system.mem_ctrls.priorityMaxLatency      0.000000608000                       # per QoS priority maximum request to response latency (s)
system.mem_ctrls.numReadWriteTurnArounds            0                       # Number of turnarounds from READ to WRITE
system.mem_ctrls.numWriteReadTurnArounds            0                       # Number of turnarounds from WRITE to READ
system.mem_ctrls.numStayReadState               36274                       # Number of times bus staying in READ state
system.mem_ctrls.numStayWriteState                  0                       # Number of times bus staying in WRITE state
system.mem_ctrls.readReqs                       16440                       # Number of read requests accepted
system.mem_ctrls.writeReqs                          0                       # Number of write requests accepted
system.mem_ctrls.readBursts                     16440                       # Number of DRAM read bursts, including those serviced by the write queue
system.mem_ctrls.writeBursts                        0                       # Number of DRAM write bursts, including those merged in the write queue
system.mem_ctrls.servicedByWrQ                      0                       # Number of DRAM read bursts serviced by the write queue
system.mem_ctrls.mergedWrBursts                     0                       # Number of DRAM write bursts merged with an existing one
system.mem_ctrls.neitherReadNorWriteReqs            0                       # Number of requests that are neither read nor write
system.mem_ctrls.perBankRdBursts::0               849                       # Per bank write bursts
system.mem_ctrls.perBankRdBursts::1              1033                       # Per bank write bursts
system.mem_ctrls.perBankRdBursts::2               643                       # Per bank write bursts
system.mem_ctrls.perBankRdBursts::3              1232                       # Per bank write bursts
system.mem_ctrls.perBankRdBursts::4              1432                       # Per bank write bursts
system.mem_ctrls.perBankRdBursts::5              1441                       # Per bank write bursts
system.mem_ctrls.perBankRdBursts::6              1367                       # Per bank write bursts
system.mem_ctrls.perBankRdBursts::7              1470                       # Per bank write bursts
system.mem_ctrls.perBankRdBursts::8              1275                       # Per bank write bursts
system.mem_ctrls.perBankRdBursts::9               930                       # Per bank write bursts
system.mem_ctrls.perBankRdBursts::10             1006                       # Per bank write bursts
system.mem_ctrls.perBankRdBursts::11              584                       # Per bank write bursts
system.mem_ctrls.perBankRdBursts::12              716                       # Per bank write bursts
system.mem_ctrls.perBankRdBursts::13              768                       # Per bank write bursts
system.mem_ctrls.perBankRdBursts::14              908                       # Per bank write bursts
system.mem_ctrls.perBankRdBursts::15              786                       # Per bank write bursts
system.mem_ctrls.perBankWrBursts::0                 0                       # Per bank write bursts
system.mem_ctrls.perBankWrBursts::1                 0                       # Per bank write bursts
system.mem_ctrls.perBankWrBursts::2                 0                       # Per bank write bursts
system.mem_ctrls.perBankWrBursts::3                 0                       # Per bank write bursts
system.mem_ctrls.perBankWrBursts::4                 0                       # Per bank write bursts
system.mem_ctrls.perBankWrBursts::5                 0                       # Per bank write bursts
system.mem_ctrls.perBankWrBursts::6                 0                       # Per bank write bursts
system.mem_ctrls.perBankWrBursts::7                 0                       # Per bank write bursts
system.mem_ctrls.perBankWrBursts::8                 0                       # Per bank write bursts
system.mem_ctrls.perBankWrBursts::9                 0                       # Per bank write bursts
system.mem_ctrls.perBankWrBursts::10                0                       # Per bank write bursts
system.mem_ctrls.perBankWrBursts::11                0                       # Per bank write bursts
system.mem_ctrls.perBankWrBursts::12                0                       # Per bank write bursts
system.mem_ctrls.perBankWrBursts::13                0                       # Per bank write bursts
system.mem_ctrls.perBankWrBursts::14                0                       # Per bank write bursts
system.mem_ctrls.perBankWrBursts::15                0                       # Per bank write bursts
system.mem_ctrls.avgRdQLen                       1.02                       # Average read queue length when enqueuing
system.mem_ctrls.avgWrQLen                       0.00                       # Average write queue length when enqueuing
system.mem_ctrls.totQLat                    101342750                       # Total ticks spent queuing
system.mem_ctrls.totBusLat                   82200000                       # Total ticks spent in databus transfers
system.mem_ctrls.totMemAccLat               409592750                       # Total ticks spent from burst creation until serviced by the DRAM
system.mem_ctrls.avgQLat                      6164.40                       # Average queueing delay per DRAM burst
system.mem_ctrls.avgBusLat                    5000.00                       # Average bus latency per DRAM burst
system.mem_ctrls.avgMemAccLat                24914.40                       # Average memory access latency per DRAM burst
system.mem_ctrls.numRdRetry                         0                       # Number of times read queue was full causing retry
system.mem_ctrls.numWrRetry                         0                       # Number of times write queue was full causing retry
system.mem_ctrls.readRowHits                    13907                       # Number of row buffer hits during reads
system.mem_ctrls.writeRowHits                       0                       # Number of row buffer hits during writes
system.mem_ctrls.readRowHitRate                 84.59                       # Row buffer hit rate for reads
system.mem_ctrls.writeRowHitRate                  nan                       # Row buffer hit rate for writes
system.mem_ctrls.readPktSize::0                     0                       # Read request sizes (log2)
system.mem_ctrls.readPktSize::1                     0                       # Read request sizes (log2)
system.mem_ctrls.readPktSize::2                     0                       # Read request sizes (log2)
system.mem_ctrls.readPktSize::3                     0                       # Read request sizes (log2)
system.mem_ctrls.readPktSize::4                 16440                       # Read request sizes (log2)
system.mem_ctrls.readPktSize::5                     0                       # Read request sizes (log2)
system.mem_ctrls.readPktSize::6                     0                       # Read request sizes (log2)
system.mem_ctrls.writePktSize::0                    0                       # Write request sizes (log2)
system.mem_ctrls.writePktSize::1                    0                       # Write request sizes (log2)
system.mem_ctrls.writePktSize::2                    0                       # Write request sizes (log2)
system.mem_ctrls.writePktSize::3                    0                       # Write request sizes (log2)
system.mem_ctrls.writePktSize::4                    0                       # Write request sizes (log2)
system.mem_ctrls.writePktSize::5                    0                       # Write request sizes (log2)
system.mem_ctrls.writePktSize::6                    0                       # Write request sizes (log2)
system.mem_ctrls.rdQLenPdf::0                   15085                       # What read queue length does an incoming req see
system.mem_ctrls.rdQLenPdf::1                    1324                       # What read queue length does an incoming req see
system.mem_ctrls.rdQLenPdf::2                      31                       # What read queue length does an incoming req see
system.mem_ctrls.rdQLenPdf::3                       0                       # What read queue length does an incoming req see
system.mem_ctrls.rdQLenPdf::4                       0                       # What read queue length does an incoming req see
system.mem_ctrls.rdQLenPdf::5                       0                       # What read queue length does an incoming req see
system.mem_ctrls.rdQLenPdf::6                       0                       # What read queue length does an incoming req see
system.mem_ctrls.rdQLenPdf::7                       0                       # What read queue length does an incoming req see
system.mem_ctrls.rdQLenPdf::8                       0                       # What read queue length does an incoming req see
system.mem_ctrls.rdQLenPdf::9                       0                       # What read queue length does an incoming req see
system.mem_ctrls.rdQLenPdf::10                      0                       # What read queue length does an incoming req see
system.mem_ctrls.rdQLenPdf::11                      0                       # What read queue length does an incoming req see
system.mem_ctrls.rdQLenPdf::12                      0                       # What read queue length does an incoming req see
system.mem_ctrls.rdQLenPdf::13                      0                       # What read queue length does an incoming req see
system.mem_ctrls.rdQLenPdf::14                      0                       # What read queue length does an incoming req see
system.mem_ctrls.rdQLenPdf::15                      0                       # What read queue length does an incoming req see
system.mem_ctrls.rdQLenPdf::16                      0                       # What read queue length does an incoming req see
system.mem_ctrls.rdQLenPdf::17                      0                       # What read queue length does an incoming req see
system.mem_ctrls.rdQLenPdf::18                      0                       # What read queue length does an incoming req see
system.mem_ctrls.rdQLenPdf::19                      0                       # What read queue length does an incoming req see
system.mem_ctrls.rdQLenPdf::20                      0                       # What read queue length does an incoming req see
system.mem_ctrls.rdQLenPdf::21                      0                       # What read queue length does an incoming req see
system.mem_ctrls.rdQLenPdf::22                      0                       # What read queue length does an incoming req see
system.mem_ctrls.rdQLenPdf::23                      0                       # What read queue length does an incoming req see
system.mem_ctrls.rdQLenPdf::24                      0                       # What read queue length does an incoming req see
system.mem_ctrls.rdQLenPdf::25                      0                       # What read queue length does an incoming req see
system.mem_ctrls.rdQLenPdf::26                      0                       # What read queue length does an incoming req see
system.mem_ctrls.rdQLenPdf::27                      0                       # What read queue length does an incoming req see
system.mem_ctrls.rdQLenPdf::28                      0                       # What read queue length does an incoming req see
system.mem_ctrls.rdQLenPdf::29                      0                       # What read queue length does an incoming req see
system.mem_ctrls.rdQLenPdf::30                      0                       # What read queue length does an incoming req see
system.mem_ctrls.rdQLenPdf::31                      0                       # What read queue length does an incoming req see
system.mem_ctrls.wrQLenPdf::0                       0                       # What write queue length does an incoming req see
system.mem_ctrls.wrQLenPdf::1                       0                       # What write queue length does an incoming req see
system.mem_ctrls.wrQLenPdf::2                       0                       # What write queue length does an incoming req see
system.mem_ctrls.wrQLenPdf::3                       0                       # What write queue length does an incoming req see
system.mem_ctrls.wrQLenPdf::4                       0                       # What write queue length does an incoming req see
system.mem_ctrls.wrQLenPdf::5                       0                       # What write queue length does an incoming req see
system.mem_ctrls.wrQLenPdf::6                       0                       # What write queue length does an incoming req see
system.mem_ctrls.wrQLenPdf::7                       0                       # What write queue length does an incoming req see
system.mem_ctrls.wrQLenPdf::8                       0                       # What write queue length does an incoming req see
system.mem_ctrls.wrQLenPdf::9                       0                       # What write queue length does an incoming req see
system.mem_ctrls.wrQLenPdf::10                      0                       # What write queue length does an incoming req see
system.mem_ctrls.wrQLenPdf::11                      0                       # What write queue length does an incoming req see
system.mem_ctrls.wrQLenPdf::12                      0                       # What write queue length does an incoming req see
system.mem_ctrls.wrQLenPdf::13                      0                       # What write queue length does an incoming req see
system.mem_ctrls.wrQLenPdf::14                      0                       # What write queue length does an incoming req see
system.mem_ctrls.wrQLenPdf::15                      0                       # What write queue length does an incoming req see
system.mem_ctrls.wrQLenPdf::16                      0                       # What write queue length does an incoming req see
system.mem_ctrls.wrQLenPdf::17                      0                       # What write queue length does an incoming req see
system.mem_ctrls.wrQLenPdf::18                      0                       # What write queue length does an incoming req see
system.mem_ctrls.wrQLenPdf::19                      0                       # What write queue length does an incoming req see
system.mem_ctrls.wrQLenPdf::20                      0                       # What write queue length does an incoming req see
system.mem_ctrls.wrQLenPdf::21                      0                       # What write queue length does an incoming req see
system.mem_ctrls.wrQLenPdf::22                      0                       # What write queue length does an incoming req see
system.mem_ctrls.wrQLenPdf::23                      0                       # What write queue length does an incoming req see
system.mem_ctrls.wrQLenPdf::24                      0                       # What write queue length does an incoming req see
system.mem_ctrls.wrQLenPdf::25                      0                       # What write queue length does an incoming req see
system.mem_ctrls.wrQLenPdf::26                      0                       # What write queue length does an incoming req see
system.mem_ctrls.wrQLenPdf::27                      0                       # What write queue length does an incoming req see
system.mem_ctrls.wrQLenPdf::28                      0                       # What write queue length does an incoming req see
system.mem_ctrls.wrQLenPdf::29                      0                       # What write queue length does an incoming req see
system.mem_ctrls.wrQLenPdf::30                      0                       # What write queue length does an incoming req see
system.mem_ctrls.wrQLenPdf::31                      0                       # What write queue length does an incoming req see
system.mem_ctrls.wrQLenPdf::32                      0                       # What write queue length does an incoming req see
system.mem_ctrls.wrQLenPdf::33                      0                       # What write queue length does an incoming req see
system.mem_ctrls.wrQLenPdf::34                      0                       # What write queue length does an incoming req see
system.mem_ctrls.wrQLenPdf::35                      0                       # What write queue length does an incoming req see
system.mem_ctrls.wrQLenPdf::36                      0                       # What write queue length does an incoming req see
system.mem_ctrls.wrQLenPdf::37                      0                       # What write queue length does an incoming req see
system.mem_ctrls.wrQLenPdf::38                      0                       # What write queue length does an incoming req see
system.mem_ctrls.wrQLenPdf::39                      0                       # What write queue length does an incoming req see
system.mem_ctrls.wrQLenPdf::40                      0                       # What write queue length does an incoming req see
system.mem_ctrls.wrQLenPdf::41                      0                       # What write queue length does an incoming req see
system.mem_ctrls.wrQLenPdf::42                      0                       # What write queue length does an incoming req see
system.mem_ctrls.wrQLenPdf::43                      0                       # What write queue length does an incoming req see
system.mem_ctrls.wrQLenPdf::44                      0                       # What write queue length does an incoming req see
system.mem_ctrls.wrQLenPdf::45                      0                       # What write queue length does an incoming req see
system.mem_ctrls.wrQLenPdf::46                      0                       # What write queue length does an incoming req see
system.mem_ctrls.wrQLenPdf::47                      0                       # What write queue length does an incoming req see
system.mem_ctrls.wrQLenPdf::48                      0                       # What write queue length does an incoming req see
system.mem_ctrls.wrQLenPdf::49                      0                       # What write queue length does an incoming req see
system.mem_ctrls.wrQLenPdf::50                      0                       # What write queue length does an incoming req see
system.mem_ctrls.wrQLenPdf::51                      0                       # What write queue length does an incoming req see
system.mem_ctrls.wrQLenPdf::52                      0                       # What write queue length does an incoming req see
system.mem_ctrls.wrQLenPdf::53                      0                       # What write queue length does an incoming req see
system.mem_ctrls.wrQLenPdf::54                      0                       # What write queue length does an incoming req see
system.mem_ctrls.wrQLenPdf::55                      0                       # What write queue length does an incoming req see
system.mem_ctrls.wrQLenPdf::56                      0                       # What write queue length does an incoming req see
system.mem_ctrls.wrQLenPdf::57                      0                       # What write queue length does an incoming req see
system.mem_ctrls.wrQLenPdf::58                      0                       # What write queue length does an incoming req see
system.mem_ctrls.wrQLenPdf::59                      0                       # What write queue length does an incoming req see
system.mem_ctrls.wrQLenPdf::60                      0                       # What write queue length does an incoming req see
system.mem_ctrls.wrQLenPdf::61                      0                       # What write queue length does an incoming req see
system.mem_ctrls.wrQLenPdf::62                      0                       # What write queue length does an incoming req see
system.mem_ctrls.wrQLenPdf::63                      0                       # What write queue length does an incoming req see
system.mem_ctrls.bytesPerActivate::samples         2533                       # Bytes accessed per row activation
system.mem_ctrls.bytesPerActivate::mean    415.380971                       # Bytes accessed per row activation
system.mem_ctrls.bytesPerActivate::gmean   291.630988                       # Bytes accessed per row activation
system.mem_ctrls.bytesPerActivate::stdev   325.336888                       # Bytes accessed per row activation
system.mem_ctrls.bytesPerActivate::0-127          390     15.40%     15.40% # Bytes accessed per row activation
system.mem_ctrls.bytesPerActivate::128-255          553     21.83%     37.23% # Bytes accessed per row activation
system.mem_ctrls.bytesPerActivate::256-383          163      6.44%     43.66% # Bytes accessed per row activation
system.mem_ctrls.bytesPerActivate::384-511          780     30.79%     74.46% # Bytes accessed per row activation
system.mem_ctrls.bytesPerActivate::512-639           83      3.28%     77.73% # Bytes accessed per row activation
system.mem_ctrls.bytesPerActivate::640-767           57      2.25%     79.98% # Bytes accessed per row activation
system.mem_ctrls.bytesPerActivate::768-895           31      1.22%     81.21% # Bytes accessed per row activation
system.mem_ctrls.bytesPerActivate::896-1023           59      2.33%     83.54% # Bytes accessed per row activation
system.mem_ctrls.bytesPerActivate::1024-1151          417     16.46%    100.00% # Bytes accessed per row activation
system.mem_ctrls.bytesPerActivate::total         2533                       # Bytes accessed per row activation
system.mem_ctrls.bytesReadDRAM                1052160                       # Total number of bytes read from DRAM
system.mem_ctrls.bytesReadWrQ                       0                       # Total number of bytes read from write queue
system.mem_ctrls.bytesWritten                       0                       # Total number of bytes written to DRAM
system.mem_ctrls.bytesReadSys                  263040                       # Total read bytes from the system interface side
system.mem_ctrls.bytesWrittenSys                    0                       # Total written bytes from the system interface side
system.mem_ctrls.avgRdBW                        79.15                       # Average DRAM read bandwidth in MiByte/s
[...]
system.cpu.icache.tags.occ_percent::total     0.907450                       # Average percentage of cache occupancy
system.cpu.icache.tags.occ_task_id_blocks::1024         1894                       # Occupied blocks per task id
system.cpu.icache.tags.age_task_id_blocks_1024::2           38                       # Occupied blocks per task id
system.cpu.icache.tags.age_task_id_blocks_1024::3          211                       # Occupied blocks per task id
system.cpu.icache.tags.age_task_id_blocks_1024::4         1645                       # Occupied blocks per task id
system.cpu.icache.tags.occ_task_id_percent::1024     0.924805                       # Percentage of cache occupancy per task id
system.cpu.icache.tags.tag_accesses           5535453                       # Number of tag accesses
system.cpu.icache.tags.data_accesses          5535453                       # Number of data accesses
system.cpu.dtb.walker.pwrStateResidencyTicks::UNDEFINED  13293141000                       # Cumulative time (in ticks) in various power states
system.cpu.dtb.stage2_mmu.stage2_tlb.walker.pwrStateResidencyTicks::UNDEFINED  13293141000                       # Cumulative time (in ticks) in various power states
system.cpu.dcache.pwrStateResidencyTicks::UNDEFINED  13293141000                       # Cumulative time (in ticks) in various power states
system.cpu.dcache.demand_hits::.cpu.data      4243739                       # number of demand (read+write) hits
system.cpu.dcache.demand_hits::total          4243739                       # number of demand (read+write) hits
system.cpu.dcache.overall_hits::.cpu.data      4244730                       # number of overall hits
system.cpu.dcache.overall_hits::total         4244730                       # number of overall hits
system.cpu.dcache.demand_misses::.cpu.data        28437                       # number of demand (read+write) misses
system.cpu.dcache.demand_misses::total          28437                       # number of demand (read+write) misses
system.cpu.dcache.overall_misses::.cpu.data        28592                       # number of overall misses
system.cpu.dcache.overall_misses::total         28592                       # number of overall misses
system.cpu.dcache.demand_miss_latency::.cpu.data   2092104999                       # number of demand (read+write) miss cycles
system.cpu.dcache.demand_miss_latency::total   2092104999                       # number of demand (read+write) miss cycles
system.cpu.dcache.overall_miss_latency::.cpu.data   2092104999                       # number of overall miss cycles
system.cpu.dcache.overall_miss_latency::total   2092104999                       # number of overall miss cycles
system.cpu.dcache.demand_accesses::.cpu.data      4272176                       # number of demand (read+write) accesses
system.cpu.dcache.demand_accesses::total      4272176                       # number of demand (read+write) accesses
system.cpu.dcache.overall_accesses::.cpu.data      4273322                       # number of overall (read+write) accesses
system.cpu.dcache.overall_accesses::total      4273322                       # number of overall (read+write) accesses
system.cpu.dcache.demand_miss_rate::.cpu.data     0.006656                       # miss rate for demand accesses
system.cpu.dcache.demand_miss_rate::total     0.006656                       # miss rate for demand accesses
system.cpu.dcache.overall_miss_rate::.cpu.data     0.006691                       # miss rate for overall accesses
system.cpu.dcache.overall_miss_rate::total     0.006691                       # miss rate for overall accesses
system.cpu.dcache.demand_avg_miss_latency::.cpu.data 73569.820973                       # average overall miss latency
system.cpu.dcache.demand_avg_miss_latency::total 73569.820973                       # average overall miss latency
system.cpu.dcache.overall_avg_miss_latency::.cpu.data 73170.991851                       # average overall miss latency
system.cpu.dcache.overall_avg_miss_latency::total 73170.991851                       # average overall miss latency
system.cpu.dcache.blocked_cycles::no_mshrs          200                       # number of cycles access was blocked
system.cpu.dcache.blocked_cycles::no_targets            0                       # number of cycles access was blocked
system.cpu.dcache.blocked::no_mshrs                 4                       # number of cycles access was blocked
system.cpu.dcache.blocked::no_targets               0                       # number of cycles access was blocked
system.cpu.dcache.avg_blocked_cycles::no_mshrs           50                       # average number of cycles each access was blocked
system.cpu.dcache.avg_blocked_cycles::no_targets          nan                       # average number of cycles each access was blocked
system.cpu.dcache.writebacks::.writebacks        11467                       # number of writebacks
system.cpu.dcache.writebacks::total             11467                       # number of writebacks
system.cpu.dcache.demand_mshr_hits::.cpu.data         7521                       # number of demand (read+write) MSHR hits
system.cpu.dcache.demand_mshr_hits::total         7521                       # number of demand (read+write) MSHR hits
system.cpu.dcache.overall_mshr_hits::.cpu.data         7521                       # number of overall MSHR hits
system.cpu.dcache.overall_mshr_hits::total         7521                       # number of overall MSHR hits
system.cpu.dcache.demand_mshr_misses::.cpu.data        20916                       # number of demand (read+write) MSHR misses
system.cpu.dcache.demand_mshr_misses::total        20916                       # number of demand (read+write) MSHR misses
system.cpu.dcache.overall_mshr_misses::.cpu.data        21068                       # number of overall MSHR misses
system.cpu.dcache.overall_mshr_misses::total        21068                       # number of overall MSHR misses
system.cpu.dcache.demand_mshr_miss_latency::.cpu.data   1459642000                       # number of demand (read+write) MSHR miss cycles
system.cpu.dcache.demand_mshr_miss_latency::total   1459642000                       # number of demand (read+write) MSHR miss cycles
system.cpu.dcache.overall_mshr_miss_latency::.cpu.data   1475538000                       # number of overall MSHR miss cycles
system.cpu.dcache.overall_mshr_miss_latency::total   1475538000                       # number of overall MSHR miss cycles
system.cpu.dcache.demand_mshr_miss_rate::.cpu.data     0.004896                       # mshr miss rate for demand accesses
system.cpu.dcache.demand_mshr_miss_rate::total     0.004896                       # mshr miss rate for demand accesses
system.cpu.dcache.overall_mshr_miss_rate::.cpu.data     0.004930                       # mshr miss rate for overall accesses
system.cpu.dcache.overall_mshr_miss_rate::total     0.004930                       # mshr miss rate for overall accesses
system.cpu.dcache.demand_avg_mshr_miss_latency::.cpu.data 69785.905527                       # average overall mshr miss latency
system.cpu.dcache.demand_avg_mshr_miss_latency::total 69785.905527                       # average overall mshr miss latency
system.cpu.dcache.overall_avg_mshr_miss_latency::.cpu.data 70036.928043                       # average overall mshr miss latency
system.cpu.dcache.overall_avg_mshr_miss_latency::total 70036.928043                       # average overall mshr miss latency
system.cpu.dcache.replacements                  12879                       # number of replacements
system.cpu.dcache.ReadReq_hits::.cpu.data      3524861                       # number of ReadReq hits
system.cpu.dcache.ReadReq_hits::total         3524861                       # number of ReadReq hits
system.cpu.dcache.ReadReq_misses::.cpu.data         5248                       # number of ReadReq misses
system.cpu.dcache.ReadReq_misses::total          5248                       # number of ReadReq misses
system.cpu.dcache.ReadReq_miss_latency::.cpu.data    255090000                       # number of ReadReq miss cycles
system.cpu.dcache.ReadReq_miss_latency::total    255090000                       # number of ReadReq miss cycles
system.cpu.dcache.ReadReq_accesses::.cpu.data      3530109                       # number of ReadReq accesses(hits+misses)
system.cpu.dcache.ReadReq_accesses::total      3530109                       # number of ReadReq accesses(hits+misses)
system.cpu.dcache.ReadReq_miss_rate::.cpu.data     0.001487                       # miss rate for ReadReq accesses
system.cpu.dcache.ReadReq_miss_rate::total     0.001487                       # miss rate for ReadReq accesses
system.cpu.dcache.ReadReq_avg_miss_latency::.cpu.data 48607.088415                       # average ReadReq miss latency
system.cpu.dcache.ReadReq_avg_miss_latency::total 48607.088415                       # average ReadReq miss latency
system.cpu.dcache.ReadReq_mshr_hits::.cpu.data           30                       # number of ReadReq MSHR hits
system.cpu.dcache.ReadReq_mshr_hits::total           30                       # number of ReadReq MSHR hits
system.cpu.dcache.ReadReq_mshr_misses::.cpu.data         5218                       # number of ReadReq MSHR misses
system.cpu.dcache.ReadReq_mshr_misses::total         5218                       # number of ReadReq MSHR misses
system.cpu.dcache.ReadReq_mshr_miss_latency::.cpu.data    242626000                       # number of ReadReq MSHR miss cycles
system.cpu.dcache.ReadReq_mshr_miss_latency::total    242626000                       # number of ReadReq MSHR miss cycles
system.cpu.dcache.ReadReq_mshr_miss_rate::.cpu.data     0.001478                       # mshr miss rate for ReadReq accesses
system.cpu.dcache.ReadReq_mshr_miss_rate::total     0.001478                       # mshr miss rate for ReadReq accesses
system.cpu.dcache.ReadReq_avg_mshr_miss_latency::.cpu.data 46497.891913                       # average ReadReq mshr miss latency
system.cpu.dcache.ReadReq_avg_mshr_miss_latency::total 46497.891913                       # average ReadReq mshr miss latency
system.cpu.dcache.WriteReq_hits::.cpu.data       718878                       # number of WriteReq hits
system.cpu.dcache.WriteReq_hits::total         718878                       # number of WriteReq hits
system.cpu.dcache.WriteReq_misses::.cpu.data        23189                       # number of WriteReq misses
system.cpu.dcache.WriteReq_misses::total        23189                       # number of WriteReq misses
system.cpu.dcache.WriteReq_miss_latency::.cpu.data   1837014999                       # number of WriteReq miss cycles
system.cpu.dcache.WriteReq_miss_latency::total   1837014999                       # number of WriteReq miss cycles
system.cpu.dcache.WriteReq_accesses::.cpu.data       742067                       # number of WriteReq accesses(hits+misses)
system.cpu.dcache.WriteReq_accesses::total       742067                       # number of WriteReq accesses(hits+misses)
system.cpu.dcache.WriteReq_miss_rate::.cpu.data     0.031249                       # miss rate for WriteReq accesses
system.cpu.dcache.WriteReq_miss_rate::total     0.031249                       # miss rate for WriteReq accesses
system.cpu.dcache.WriteReq_avg_miss_latency::.cpu.data 79219.241839                       # average WriteReq miss latency
system.cpu.dcache.WriteReq_avg_miss_latency::total 79219.241839                       # average WriteReq miss latency
system.cpu.dcache.WriteReq_mshr_hits::.cpu.data         7491                       # number of WriteReq MSHR hits
system.cpu.dcache.WriteReq_mshr_hits::total         7491                       # number of WriteReq MSHR hits
system.cpu.dcache.WriteReq_mshr_misses::.cpu.data        15698                       # number of WriteReq MSHR misses
system.cpu.dcache.WriteReq_mshr_misses::total        15698                       # number of WriteReq MSHR misses
system.cpu.dcache.WriteReq_mshr_miss_latency::.cpu.data   1217016000                       # number of WriteReq MSHR miss cycles
system.cpu.dcache.WriteReq_mshr_miss_latency::total   1217016000                       # number of WriteReq MSHR miss cycles
system.cpu.dcache.WriteReq_mshr_miss_rate::.cpu.data     0.021154                       # mshr miss rate for WriteReq accesses
system.cpu.dcache.WriteReq_mshr_miss_rate::total     0.021154                       # mshr miss rate for WriteReq accesses
system.cpu.dcache.WriteReq_avg_mshr_miss_latency::.cpu.data 77526.818703                       # average WriteReq mshr miss latency
system.cpu.dcache.WriteReq_avg_mshr_miss_latency::total 77526.818703                       # average WriteReq mshr miss latency
system.cpu.dcache.SoftPFReq_hits::.cpu.data          991                       # number of SoftPFReq hits
system.cpu.dcache.SoftPFReq_hits::total           991                       # number of SoftPFReq hits
system.cpu.dcache.SoftPFReq_misses::.cpu.data          155                       # number of SoftPFReq misses
system.cpu.dcache.SoftPFReq_misses::total          155                       # number of SoftPFReq misses
system.cpu.dcache.SoftPFReq_accesses::.cpu.data         1146                       # number of SoftPFReq accesses(hits+misses)
system.cpu.dcache.SoftPFReq_accesses::total         1146                       # number of SoftPFReq accesses(hits+misses)
system.cpu.dcache.SoftPFReq_miss_rate::.cpu.data     0.135253                       # miss rate for SoftPFReq accesses
system.cpu.dcache.SoftPFReq_miss_rate::total     0.135253                       # miss rate for SoftPFReq accesses
system.cpu.dcache.SoftPFReq_mshr_misses::.cpu.data          152                       # number of SoftPFReq MSHR misses
system.cpu.dcache.SoftPFReq_mshr_misses::total          152                       # number of SoftPFReq MSHR misses
system.cpu.dcache.SoftPFReq_mshr_miss_latency::.cpu.data     15896000                       # number of SoftPFReq MSHR miss cycles
system.cpu.dcache.SoftPFReq_mshr_miss_latency::total     15896000                       # number of SoftPFReq MSHR miss cycles
system.cpu.dcache.SoftPFReq_mshr_miss_rate::.cpu.data     0.132635                       # mshr miss rate for SoftPFReq accesses
system.cpu.dcache.SoftPFReq_mshr_miss_rate::total     0.132635                       # mshr miss rate for SoftPFReq accesses
system.cpu.dcache.SoftPFReq_avg_mshr_miss_latency::.cpu.data 104578.947368                       # average SoftPFReq mshr miss latency
system.cpu.dcache.SoftPFReq_avg_mshr_miss_latency::total 104578.947368                       # average SoftPFReq mshr miss latency
system.cpu.dcache.LoadLockedReq_hits::.cpu.data          163                       # number of LoadLockedReq hits
system.cpu.dcache.LoadLockedReq_hits::total          163                       # number of LoadLockedReq hits
system.cpu.dcache.LoadLockedReq_misses::.cpu.data            3                       # number of LoadLockedReq misses
system.cpu.dcache.LoadLockedReq_misses::total            3                       # number of LoadLockedReq misses
system.cpu.dcache.LoadLockedReq_miss_latency::.cpu.data       341000                       # number of LoadLockedReq miss cycles
system.cpu.dcache.LoadLockedReq_miss_latency::total       341000                       # number of LoadLockedReq miss cycles
system.cpu.dcache.LoadLockedReq_accesses::.cpu.data          166                       # number of LoadLockedReq accesses(hits+misses)
system.cpu.dcache.LoadLockedReq_accesses::total          166                       # number of LoadLockedReq accesses(hits+misses)
system.cpu.dcache.LoadLockedReq_miss_rate::.cpu.data     0.018072                       # miss rate for LoadLockedReq accesses
system.cpu.dcache.LoadLockedReq_miss_rate::total     0.018072                       # miss rate for LoadLockedReq accesses
system.cpu.dcache.LoadLockedReq_avg_miss_latency::.cpu.data 113666.666667                       # average LoadLockedReq miss latency
system.cpu.dcache.LoadLockedReq_avg_miss_latency::total 113666.666667                       # average LoadLockedReq miss latency
system.cpu.dcache.LoadLockedReq_mshr_misses::.cpu.data            3                       # number of LoadLockedReq MSHR misses
system.cpu.dcache.LoadLockedReq_mshr_misses::total            3                       # number of LoadLockedReq MSHR misses
system.cpu.dcache.LoadLockedReq_mshr_miss_latency::.cpu.data       335000                       # number of LoadLockedReq MSHR miss cycles
system.cpu.dcache.LoadLockedReq_mshr_miss_latency::total       335000                       # number of LoadLockedReq MSHR miss cycles
system.cpu.dcache.LoadLockedReq_mshr_miss_rate::.cpu.data     0.018072                       # mshr miss rate for LoadLockedReq accesses
system.cpu.dcache.LoadLockedReq_mshr_miss_rate::total     0.018072                       # mshr miss rate for LoadLockedReq accesses
system.cpu.dcache.LoadLockedReq_avg_mshr_miss_latency::.cpu.data 111666.666667                       # average LoadLockedReq mshr miss latency
system.cpu.dcache.LoadLockedReq_avg_mshr_miss_latency::total 111666.666667                       # average LoadLockedReq mshr miss latency
system.cpu.dcache.StoreCondReq_hits::.cpu.data          166                       # number of StoreCondReq hits
system.cpu.dcache.StoreCondReq_hits::total          166                       # number of StoreCondReq hits
system.cpu.dcache.StoreCondReq_accesses::.cpu.data          166                       # number of StoreCondReq accesses(hits+misses)
system.cpu.dcache.StoreCondReq_accesses::total          166                       # number of StoreCondReq accesses(hits+misses)
system.cpu.dcache.tags.pwrStateResidencyTicks::UNDEFINED  13293141000                       # Cumulative time (in ticks) in various power states
system.cpu.dcache.tags.tagsinuse          6548.433224                       # Cycle average of tags in use
system.cpu.dcache.tags.total_refs             4266130                       # Total number of references to valid blocks.
system.cpu.dcache.tags.sampled_refs             21071                       # Sample count of references to valid blocks.
system.cpu.dcache.tags.avg_refs            202.464525                       # Average number of references to valid blocks.
system.cpu.dcache.tags.warmup_cycle            319000                       # Cycle when the warmup percentage was hit.
system.cpu.dcache.tags.occ_blocks::.cpu.data  6548.433224                       # Average occupied blocks per requestor
system.cpu.dcache.tags.occ_percent::.cpu.data     0.799369                       # Average percentage of cache occupancy
system.cpu.dcache.tags.occ_percent::total     0.799369                       # Average percentage of cache occupancy
system.cpu.dcache.tags.occ_task_id_blocks::1024         8192                       # Occupied blocks per task id
system.cpu.dcache.tags.age_task_id_blocks_1024::2           40                       # Occupied blocks per task id
system.cpu.dcache.tags.age_task_id_blocks_1024::3         7011                       # Occupied blocks per task id
system.cpu.dcache.tags.age_task_id_blocks_1024::4         1141                       # Occupied blocks per task id
system.cpu.dcache.tags.occ_task_id_percent::1024            1                       # Percentage of cache occupancy per task id
system.cpu.dcache.tags.tag_accesses           8568379                       # Number of tag accesses
system.cpu.dcache.tags.data_accesses          8568379                       # Number of data accesses
system.cpu.itb.walker.pwrStateResidencyTicks::UNDEFINED  13293141000                       # Cumulative time (in ticks) in various power states
system.cpu.itb.stage2_mmu.stage2_tlb.walker.pwrStateResidencyTicks::UNDEFINED  13293141000                       # Cumulative time (in ticks) in various power states

---------- End Simulation Statistics   ----------
