
---------- Begin Simulation Statistics ----------
final_tick                                14734996000                       # Number of ticks from beginning of simulation (restored from checkpoints and never reset)
host_inst_rate                                 208493                       # Simulator instruction rate (inst/s)
host_mem_usage                                 683924                       # Number of bytes of host memory used
host_op_rate                                   228652                       # Simulator op (including micro ops) rate (op/s)
host_seconds                                    47.96                       # Real time elapsed on the host
host_tick_rate                              307212614                       # Simulator tick rate (ticks/s)
sim_freq                                 1000000000000                       # Frequency of simulated ticks
sim_insts                                    10000000                       # Number of instructions simulated
sim_ops                                      10966938                       # Number of ops (including micro ops) simulated
sim_seconds                                  0.014735                       # Number of seconds simulated
sim_ticks                                 14734996000                       # Number of ticks simulated
system.cpu.branchPred.BTBCorrect                    0                       # Number of correct BTB predictions (this stat may not work properly.
system.cpu.branchPred.BTBHitPct             56.953515                       # BTB Hit Percentage
system.cpu.branchPred.BTBHits                  786585                       # Number of BTB hits
system.cpu.branchPred.BTBLookups              1381100                       # Number of BTB lookups
system.cpu.branchPred.RASInCorrect                 10                       # Number of incorrect RAS predictions.
system.cpu.branchPred.condIncorrect             13647                       # Number of conditional branches incorrect
system.cpu.branchPred.condPredicted           1476583                       # Number of conditional branches predicted
system.cpu.branchPred.indirectHits              27110                       # Number of indirect target hits.
system.cpu.branchPred.indirectLookups           54383                       # Number of indirect predictor lookups.
system.cpu.branchPred.indirectMisses            27273                       # Number of indirect misses.
system.cpu.branchPred.lookups                 1868195                       # Number of BP lookups
system.cpu.branchPred.usedRAS                  108878                       # Number of times the RAS was used to get a target.
system.cpu.branchPredindirectMispredicted          115                       # Number of mispredicted indirect branches.
system.cpu.committedInsts                    10000000                       # Number of instructions committed
system.cpu.committedOps                      10966938                       # Number of ops (including micro ops) committed
system.cpu.cpi                               1.473500                       # CPI: cycles per instruction
system.cpu.discardedOps                         73221                       # Number of ops (including micro ops) which were discarded before commit
system.cpu.dtb.accesses                             0                       # DTB accesses
system.cpu.dtb.align_faults                         0                       # Number of TLB faults due to alignment restrictions
system.cpu.dtb.domain_faults                        0                       # Number of TLB faults due to domain restrictions
system.cpu.dtb.flush_entries                        0                       # Number of entries that have been flushed from TLB
system.cpu.dtb.flush_tlb                            0                       # Number of times complete TLB was flushed
system.cpu.dtb.flush_tlb_asid                       0                       # Number of times TLB was flushed by ASID
system.cpu.dtb.flush_tlb_mva                        0                       # Number of times TLB was flushed by MVA
system.cpu.dtb.flush_tlb_mva_asid                   0                       # Number of times TLB was flushed by MVA & ASID
system.cpu.dtb.hits                                 0                       # DTB hits
system.cpu.dtb.inst_accesses                        0                       # ITB inst accesses
system.cpu.dtb.inst_hits                            0                       # ITB inst hits
system.cpu.dtb.inst_misses                          0                       # ITB inst misses
system.cpu.dtb.misses                               0                       # DTB misses
system.cpu.dtb.perms_faults                         0                       # Number of TLB faults due to permissions restrictions
system.cpu.dtb.prefetch_faults                      0                       # Number of TLB faults due to prefetch
system.cpu.dtb.read_accesses                        0                       # DTB read accesses
system.cpu.dtb.read_hits                            0                       # DTB read hits
system.cpu.dtb.read_misses                          0                       # DTB read misses
system.cpu.dtb.stage2_mmu.stage2_tlb.accesses            0                       # DTB accesses
system.cpu.dtb.stage2_mmu.stage2_tlb.align_faults            0                       # Number of TLB faults due to alignment restrictions
system.cpu.dtb.stage2_mmu.stage2_tlb.domain_faults            0                       # Number of TLB faults due to domain restrictions
system.cpu.dtb.stage2_mmu.stage2_tlb.flush_entries            0                       # Number of entries that have been flushed from TLB
system.cpu.dtb.stage2_mmu.stage2_tlb.flush_tlb            0                       # Number of times complete TLB was flushed
system.cpu.dtb.stage2_mmu.stage2_tlb.flush_tlb_asid            0                       # Number of times TLB was flushed by ASID
system.cpu.dtb.stage2_mmu.stage2_tlb.flush_tlb_mva            0                       # Number of times TLB was flushed by MVA
system.cpu.dtb.stage2_mmu.stage2_tlb.flush_tlb_mva_asid            0                       # Number of times TLB was flushed by MVA & ASID
system.cpu.dtb.stage2_mmu.stage2_tlb.hits            0                       # DTB hits
system.cpu.dtb.stage2_mmu.stage2_tlb.inst_accesses            0                       # ITB inst accesses
system.cpu.dtb.stage2_mmu.stage2_tlb.inst_hits            0                       # ITB inst hits
system.cpu.dtb.stage2_mmu.stage2_tlb.inst_misses            0                       # ITB inst misses
system.cpu.dtb.stage2_mmu.stage2_tlb.misses            0                       # DTB misses
system.cpu.dtb.stage2_mmu.stage2_tlb.perms_faults            0                       # Number of TLB faults due to permissions restrictions
system.cpu.dtb.stage2_mmu.stage2_tlb.prefetch_faults            0                       # Number of TLB faults due to prefetch
system.cpu.dtb.stage2_mmu.stage2_tlb.read_accesses            0                       # DTB read accesses
system.cpu.dtb.stage2_mmu.stage2_tlb.read_hits            0                       # DTB read hits
system.cpu.dtb.stage2_mmu.stage2_tlb.read_misses            0                       # DTB read misses
system.cpu.dtb.stage2_mmu.stage2_tlb.walker.walkRequestOrigin_Requested::Data            0                       # Table walker requests started/completed, data/inst
system.cpu.dtb.stage2_mmu.stage2_tlb.walker.walkRequestOrigin_Requested::Inst            0                       # Table walker requests started/completed, data/inst
system.cpu.dtb.stage2_mmu.stage2_tlb.walker.walkRequestOrigin_Requested::total            0                       # Table walker requests started/completed, data/inst
system.cpu.dtb.stage2_mmu.stage2_tlb.walker.walkRequestOrigin_Completed::Data            0                       # Table walker requests started/completed, data/inst
system.cpu.dtb.stage2_mmu.stage2_tlb.walker.walkRequestOrigin_Completed::Inst            0                       # Table walker requests started/completed, data/inst
system.cpu.dtb.stage2_mmu.stage2_tlb.walker.walkRequestOrigin_Completed::total            0                       # Table walker requests started/completed, data/inst
system.cpu.dtb.stage2_mmu.stage2_tlb.walker.walkRequestOrigin::total            0                       # Table walker requests started/completed, data/inst
system.cpu.dtb.stage2_mmu.stage2_tlb.walker.walks            0                       # Table walker walks requested
system.cpu.dtb.stage2_mmu.stage2_tlb.write_accesses            0                       # DTB write accesses
system.cpu.dtb.stage2_mmu.stage2_tlb.write_hits            0                       # DTB write hits
system.cpu.dtb.stage2_mmu.stage2_tlb.write_misses            0                       # DTB write misses
system.cpu.dtb.walker.walkRequestOrigin_Requested::Data            0                       # Table walker requests started/completed, data/inst
system.cpu.dtb.walker.walkRequestOrigin_Requested::Inst            0                       # Table walker requests started/completed, data/inst
system.cpu.dtb.walker.walkRequestOrigin_Requested::total            0                       # Table walker requests started/completed, data/inst
system.cpu.dtb.walker.walkRequestOrigin_Completed::Data            0                       # Table walker requests started/completed, data/inst
system.cpu.dtb.walker.walkRequestOrigin_Completed::Inst            0                       # Table walker requests started/completed, data/inst
system.cpu.dtb.walker.walkRequestOrigin_Completed::total            0                       # Table walker requests started/completed, data/inst
system.cpu.dtb.walker.walkRequestOrigin::total            0                       # Table walker requests started/completed, data/inst
system.cpu.dtb.walker.walks                         0                       # Table walker walks requested
system.cpu.dtb.write_accesses                       0                       # DTB write accesses
system.cpu.dtb.write_hits                           0                       # DTB write hits
system.cpu.dtb.write_misses                         0                       # DTB write misses
system.cpu.fetch2.amo_instructions                  0                       # Number of memory atomic instructions successfully decoded
system.cpu.fetch2.fp_instructions                   0                       # Number of floating point instructions successfully decoded
system.cpu.fetch2.int_instructions            4894411                       # Number of integer instructions successfully decoded
system.cpu.fetch2.load_instructions           1979709                       # Number of memory load instructions successfully decoded
system.cpu.fetch2.store_instructions          1087479                       # Number of memory store instructions successfully decoded
system.cpu.fetch2.vec_instructions                  0                       # Number of SIMD instructions successfully decoded
system.cpu.idleCycles                         2356035                       # Total number of cycles that the object has spent stopped
system.cpu.ipc                               0.678656                       # IPC: instructions per cycle
system.cpu.itb.accesses                             0                       # DTB accesses
system.cpu.itb.align_faults                         0                       # Number of TLB faults due to alignment restrictions
system.cpu.itb.domain_faults                        0                       # Number of TLB faults due to domain restrictions
system.cpu.itb.flush_entries                        0                       # Number of entries that have been flushed from TLB
system.cpu.itb.flush_tlb                            0                       # Number of times complete TLB was flushed
system.cpu.itb.flush_tlb_asid                       0                       # Number of times TLB was flushed by ASID
system.cpu.itb.flush_tlb_mva                        0                       # Number of times TLB was flushed by MVA
system.cpu.itb.flush_tlb_mva_asid                   0                       # Number of times TLB was flushed by MVA & ASID
system.cpu.itb.hits                                 0                       # DTB hits
system.cpu.itb.inst_accesses                        0                       # ITB inst accesses
system.cpu.itb.inst_hits                            0                       # ITB inst hits
system.cpu.itb.inst_misses                          0                       # ITB inst misses
system.cpu.itb.misses                               0                       # DTB misses
system.cpu.itb.perms_faults                         0                       # Number of TLB faults due to permissions restrictions
system.cpu.itb.prefetch_faults                      0                       # Number of TLB faults due to prefetch
system.cpu.itb.read_accesses                        0                       # DTB read accesses
system.cpu.itb.read_hits                            0                       # DTB read hits
system.cpu.itb.read_misses                          0                       # DTB read misses
system.cpu.itb.stage2_mmu.stage2_tlb.accesses            0                       # DTB accesses
system.cpu.itb.stage2_mmu.stage2_tlb.align_faults            0                       # Number of TLB faults due to alignment restrictions
system.cpu.itb.stage2_mmu.stage2_tlb.domain_faults            0                       # Number of TLB faults due to domain restrictions
system.cpu.itb.stage2_mmu.stage2_tlb.flush_entries            0                       # Number of entries that have been flushed from TLB
system.cpu.itb.stage2_mmu.stage2_tlb.flush_tlb            0                       # Number of times complete TLB was flushed
system.cpu.itb.stage2_mmu.stage2_tlb.flush_tlb_asid            0                       # Number of times TLB was flushed by ASID
system.cpu.itb.stage2_mmu.stage2_tlb.flush_tlb_mva            0                       # Number of times TLB was flushed by MVA
system.cpu.itb.stage2_mmu.stage2_tlb.flush_tlb_mva_asid            0                       # Number of times TLB was flushed by MVA & ASID
system.cpu.itb.stage2_mmu.stage2_tlb.hits            0                       # DTB hits
system.cpu.itb.stage2_mmu.stage2_tlb.inst_accesses            0                       # ITB inst accesses
system.cpu.itb.stage2_mmu.stage2_tlb.inst_hits            0                       # ITB inst hits
system.cpu.itb.stage2_mmu.stage2_tlb.inst_misses            0                       # ITB inst misses
system.cpu.itb.stage2_mmu.stage2_tlb.misses            0                       # DTB misses
system.cpu.itb.stage2_mmu.stage2_tlb.perms_faults            0                       # Number of TLB faults due to permissions restrictions
system.cpu.itb.stage2_mmu.stage2_tlb.prefetch_faults            0                       # Number of TLB faults due to prefetch
system.cpu.itb.stage2_mmu.stage2_tlb.read_accesses            0                       # DTB read accesses
system.cpu.itb.stage2_mmu.stage2_tlb.read_hits            0                       # DTB read hits
system.cpu.itb.stage2_mmu.stage2_tlb.read_misses            0                       # DTB read misses
system.cpu.itb.stage2_mmu.stage2_tlb.walker.walkRequestOrigin_Requested::Data            0                       # Table walker requests started/completed, data/inst
system.cpu.itb.stage2_mmu.stage2_tlb.walker.walkRequestOrigin_Requested::Inst            0                       # Table walker requests started/completed, data/inst
system.cpu.itb.stage2_mmu.stage2_tlb.walker.walkRequestOrigin_Requested::total            0                       # Table walker requests started/completed, data/inst
system.cpu.itb.stage2_mmu.stage2_tlb.walker.walkRequestOrigin_Completed::Data            0                       # Table walker requests started/completed, data/inst
system.cpu.itb.stage2_mmu.stage2_tlb.walker.walkRequestOrigin_Completed::Inst            0                       # Table walker requests started/completed, data/inst
system.cpu.itb.stage2_mmu.stage2_tlb.walker.walkRequestOrigin_Completed::total            0                       # Table walker requests started/completed, data/inst
system.cpu.itb.stage2_mmu.stage2_tlb.walker.walkRequestOrigin::total            0                       # Table walker requests started/completed, data/inst
system.cpu.itb.stage2_mmu.stage2_tlb.walker.walks            0                       # Table walker walks requested
system.cpu.itb.stage2_mmu.stage2_tlb.write_accesses            0                       # DTB write accesses
system.cpu.itb.stage2_mmu.stage2_tlb.write_hits            0                       # DTB write hits
system.cpu.itb.stage2_mmu.stage2_tlb.write_misses            0                       # DTB write misses
system.cpu.itb.walker.walkRequestOrigin_Requested::Data            0                       # Table walker requests started/completed, data/inst
system.cpu.itb.walker.walkRequestOrigin_Requested::Inst            0                       # Table walker requests started/completed, data/inst
system.cpu.itb.walker.walkRequestOrigin_Requested::total            0                       # Table walker requests started/completed, data/inst
system.cpu.itb.walker.walkRequestOrigin_Completed::Data            0                       # Table walker requests started/completed, data/inst
system.cpu.itb.walker.walkRequestOrigin_Completed::Inst            0                       # Table walker requests started/completed, data/inst
system.cpu.itb.walker.walkRequestOrigin_Completed::total            0                       # Table walker requests started/completed, data/inst
system.cpu.itb.walker.walkRequestOrigin::total            0                       # Table walker requests started/completed, data/inst
system.cpu.itb.walker.walks                         0                       # Table walker walks requested
system.cpu.itb.write_accesses                       0                       # DTB write accesses
system.cpu.itb.write_hits                           0                       # DTB write hits
system.cpu.itb.write_misses                         0                       # DTB write misses
system.cpu.numCycles                         14734996                       # number of cpu cycles simulated
system.cpu.numFetchSuspends                         0                       # Number of times Execute suspended instruction fetching
system.cpu.numWorkItemsCompleted                    0                       # number of work items this cpu completed
system.cpu.numWorkItemsStarted                      0                       # number of work items this cpu started
system.cpu.op_class_0::No_OpClass                   0      0.00%      0.00% # Class of committed instruction
system.cpu.op_class_0::IntAlu                 6896073     62.88%     62.88% # Class of committed instruction
system.cpu.op_class_0::IntMult                 100107      0.91%     63.79% # Class of committed instruction
system.cpu.op_class_0::IntDiv                       0      0.00%     63.79% # Class of committed instruction
system.cpu.op_class_0::FloatAdd                     0      0.00%     63.79% # Class of committed instruction
system.cpu.op_class_0::FloatCmp                     0      0.00%     63.79% # Class of committed instruction
system.cpu.op_class_0::FloatCvt                     0      0.00%     63.79% # Class of committed instruction
system.cpu.op_class_0::FloatMult                    0      0.00%     63.79% # Class of committed instruction
system.cpu.op_class_0::FloatMultAcc                 0      0.00%     63.79% # Class of committed instruction
system.cpu.op_class_0::FloatDiv                     0      0.00%     63.79% # Class of committed instruction
system.cpu.op_class_0::FloatMisc                    0      0.00%     63.79% # Class of committed instruction
system.cpu.op_class_0::FloatSqrt                    0      0.00%     63.79% # Class of committed instruction
system.cpu.op_class_0::SimdAdd                  27020      0.25%     64.04% # Class of committed instruction
system.cpu.op_class_0::SimdAddAcc                   0      0.00%     64.04% # Class of committed instruction
system.cpu.op_class_0::SimdAlu                  16372      0.15%     64.19% # Class of committed instruction
system.cpu.op_class_0::SimdCmp                  13510      0.12%     64.31% # Class of committed instruction
system.cpu.op_class_0::SimdCvt                      0      0.00%     64.31% # Class of committed instruction
system.cpu.op_class_0::SimdMisc                  5414      0.05%     64.36% # Class of committed instruction
system.cpu.op_class_0::SimdMult                     0      0.00%     64.36% # Class of committed instruction
system.cpu.op_class_0::SimdMultAcc                  0      0.00%     64.36% # Class of committed instruction
system.cpu.op_class_0::SimdShift                    0      0.00%     64.36% # Class of committed instruction
system.cpu.op_class_0::SimdShiftAcc                 0      0.00%     64.36% # Class of committed instruction
system.cpu.op_class_0::SimdDiv                      0      0.00%     64.36% # Class of committed instruction
system.cpu.op_class_0::SimdSqrt                     0      0.00%     64.36% # Class of committed instruction
system.cpu.op_class_0::SimdFloatAdd                 0      0.00%     64.36% # Class of committed instruction
system.cpu.op_class_0::SimdFloatAlu                 0      0.00%     64.36% # Class of committed instruction
system.cpu.op_class_0::SimdFloatCmp                 0      0.00%     64.36% # Class of committed instruction
system.cpu.op_class_0::SimdFloatCvt                 0      0.00%     64.36% # Class of committed instruction
system.cpu.op_class_0::SimdFloatDiv                 0      0.00%     64.36% # Class of committed instruction
system.cpu.op_class_0::SimdFloatMisc            19031      0.17%     64.54% # Class of committed instruction
system.cpu.op_class_0::SimdFloatMult                0      0.00%     64.54% # Class of committed instruction
system.cpu.op_class_0::SimdFloatMultAcc             0      0.00%     64.54% # Class of committed instruction
system.cpu.op_class_0::SimdFloatSqrt                0      0.00%     64.54% # Class of committed instruction
system.cpu.op_class_0::SimdReduceAdd                0      0.00%     64.54% # Class of committed instruction
system.cpu.op_class_0::SimdReduceAlu                0      0.00%     64.54% # Class of committed instruction
system.cpu.op_class_0::SimdReduceCmp                0      0.00%     64.54% # Class of committed instruction
system.cpu.op_class_0::SimdFloatReduceAdd            0      0.00%     64.54% # Class of committed instruction
system.cpu.op_class_0::SimdFloatReduceCmp            0      0.00%     64.54% # Class of committed instruction
system.cpu.op_class_0::SimdAes                      0      0.00%     64.54% # Class of committed instruction
system.cpu.op_class_0::SimdAesMix                   0      0.00%     64.54% # Class of committed instruction
system.cpu.op_class_0::SimdSha1Hash                 0      0.00%     64.54% # Class of committed instruction
system.cpu.op_class_0::SimdSha1Hash2                0      0.00%     64.54% # Class of committed instruction
system.cpu.op_class_0::SimdSha256Hash               0      0.00%     64.54% # Class of committed instruction
system.cpu.op_class_0::SimdSha256Hash2              0      0.00%     64.54% # Class of committed instruction
system.cpu.op_class_0::SimdShaSigma2                0      0.00%     64.54% # Class of committed instruction
system.cpu.op_class_0::SimdShaSigma3                0      0.00%     64.54% # Class of committed instruction
system.cpu.op_class_0::SimdPredAlu                  0      0.00%     64.54% # Class of committed instruction
system.cpu.op_class_0::MemRead                2330243     21.25%     85.78% # Class of committed instruction
system.cpu.op_class_0::MemWrite               1559168     14.22%    100.00% # Class of committed instruction
system.cpu.op_class_0::FloatMemRead                 0      0.00%    100.00% # Class of committed instruction
system.cpu.op_class_0::FloatMemWrite                0      0.00%    100.00% # Class of committed instruction
system.cpu.op_class_0::IprAccess                    0      0.00%    100.00% # Class of committed instruction
system.cpu.op_class_0::InstPrefetch                 0      0.00%    100.00% # Class of committed instruction
system.cpu.op_class_0::total                 10966938                       # Class of committed instruction
system.cpu.tickCycles                        12378961                       # Number of cycles that the object actually ticked
system.cpu.workload.numSyscalls                    25                       # Number of system calls
system.membus.snoop_filter.hit_multi_requests            0                       # Number of requests hitting in the snoop filter with multiple (>1) holders of the requested data.
system.membus.snoop_filter.hit_multi_snoops            0                       # Number of snoops hitting in the snoop filter with multiple (>1) holders of the requested data.
system.membus.snoop_filter.hit_single_requests          902                       # Number of requests hitting in the snoop filter with a single holder of the requested data.
system.membus.snoop_filter.hit_single_snoops            0                       # Number of snoops hitting in the snoop filter with a single holder of the requested data.
system.membus.snoop_filter.tot_requests         10223                       # Total number of requests made to the snoop filter.
system.membus.snoop_filter.tot_snoops               0                       # Total number of snoops made to the snoop filter.
system.tol2bus.snoop_filter.hit_multi_requests         1154                       # Number of requests hitting in the snoop filter with multiple (>1) holders of the requested data.
system.tol2bus.snoop_filter.hit_multi_snoops            4                       # Number of snoops hitting in the snoop filter with multiple (>1) holders of the requested data.
system.tol2bus.snoop_filter.hit_single_requests       122273                       # Number of requests hitting in the snoop filter with a single holder of the requested data.
system.tol2bus.snoop_filter.hit_single_snoops          225                       # Number of snoops hitting in the snoop filter with a single holder of the requested data.
system.tol2bus.snoop_filter.tot_requests       245787                       # Total number of requests made to the snoop filter.
system.tol2bus.snoop_filter.tot_snoops            229                       # Total number of snoops made to the snoop filter.
system.membus.pwrStateResidencyTicks::UNDEFINED  14734996000                       # Cumulative time (in ticks) in various power states
system.membus.trans_dist::ReadResp                473                       # Transaction distribution
system.membus.trans_dist::WritebackDirty          758                       # Transaction distribution
system.membus.trans_dist::CleanEvict              143                       # Transaction distribution
system.membus.trans_dist::ReadExReq              8849                       # Transaction distribution
system.membus.trans_dist::ReadExResp             8849                       # Transaction distribution
system.membus.trans_dist::ReadSharedReq           473                       # Transaction distribution
system.membus.pkt_count_system.l2.mem_side::system.mem_ctrls.port        19545                       # Packet count per connected master and slave (bytes)
system.membus.pkt_count::total                  19545                       # Packet count per connected master and slave (bytes)
system.membus.pkt_size_system.l2.mem_side::system.mem_ctrls.port      1290240                       # Cumulative packet size per connected master and slave (bytes)
system.membus.pkt_size::total                 1290240                       # Cumulative packet size per connected master and slave (bytes)
system.membus.snoops                                0                       # Total snoops (count)
system.membus.snoopTraffic                          0                       # Total snoop traffic (bytes)
system.membus.snoop_fanout::samples              9322                       # Request fanout histogram
system.membus.snoop_fanout::mean                    0                       # Request fanout histogram
system.membus.snoop_fanout::stdev                   0                       # Request fanout histogram
system.membus.snoop_fanout::underflows              0      0.00%      0.00% # Request fanout histogram
system.membus.snoop_fanout::0                    9322    100.00%    100.00% # Request fanout histogram
system.membus.snoop_fanout::1                       0      0.00%    100.00% # Request fanout histogram
system.membus.snoop_fanout::overflows               0      0.00%    100.00% # Request fanout histogram
system.membus.snoop_fanout::min_value               0                       # Request fanout histogram
system.membus.snoop_fanout::max_value               0                       # Request fanout histogram
system.membus.snoop_fanout::total                9322                       # Request fanout histogram
system.membus.respLayer1.occupancy           87842250                       # Layer occupancy (ticks)
system.membus.respLayer1.utilization              0.6                       # Layer utilization (%)
system.membus.reqLayer0.occupancy            16287000                       # Layer occupancy (ticks)
system.membus.reqLayer0.utilization               0.1                       # Layer utilization (%)
system.tol2bus.pwrStateResidencyTicks::UNDEFINED  14734996000                       # Cumulative time (in ticks) in various power states
system.tol2bus.trans_dist::ReadResp            114663                       # Transaction distribution
system.tol2bus.trans_dist::WritebackDirty         8683                       # Transaction distribution
system.tol2bus.trans_dist::WritebackClean       113956                       # Transaction distribution
system.tol2bus.trans_dist::CleanEvict             760                       # Transaction distribution
system.tol2bus.trans_dist::ReadExReq             8855                       # Transaction distribution
system.tol2bus.trans_dist::ReadExResp            8855                       # Transaction distribution
system.tol2bus.trans_dist::ReadCleanReq        114181                       # Transaction distribution
system.tol2bus.trans_dist::ReadSharedReq          482                       # Transaction distribution
system.tol2bus.pkt_count_system.cpu.icache.mem_side::system.l2.cpu_side       342318                       # Packet count per connected master and slave (bytes)
system.tol2bus.pkt_count_system.cpu.dcache.mem_side::system.l2.cpu_side        26987                       # Packet count per connected master and slave (bytes)
system.tol2bus.pkt_count::total                369305                       # Packet count per connected master and slave (bytes)
system.tol2bus.pkt_size_system.cpu.icache.mem_side::system.l2.cpu_side     29201536                       # Cumulative packet size per connected master and slave (bytes)
system.tol2bus.pkt_size_system.cpu.dcache.mem_side::system.l2.cpu_side      2209536                       # Cumulative packet size per connected master and slave (bytes)
system.tol2bus.pkt_size::total               31411072                       # Cumulative packet size per connected master and slave (bytes)
system.tol2bus.snoops                            1130                       # Total snoops (count)
system.tol2bus.snoopTraffic                     97024                       # Total snoop traffic (bytes)
system.tol2bus.snoop_fanout::samples           124648                       # Request fanout histogram
system.tol2bus.snoop_fanout::mean            0.011159                       # Request fanout histogram
system.tol2bus.snoop_fanout::stdev           0.105353                       # Request fanout histogram
system.tol2bus.snoop_fanout::underflows             0      0.00%      0.00% # Request fanout histogram
system.tol2bus.snoop_fanout::0                 123261     98.89%     98.89% # Request fanout histogram
system.tol2bus.snoop_fanout::1                   1383      1.11%    100.00% # Request fanout histogram
system.tol2bus.snoop_fanout::2                      4      0.00%    100.00% # Request fanout histogram
system.tol2bus.snoop_fanout::overflows              0      0.00%    100.00% # Request fanout histogram
system.tol2bus.snoop_fanout::min_value              0                       # Request fanout histogram
system.tol2bus.snoop_fanout::max_value              2                       # Request fanout histogram
system.tol2bus.snoop_fanout::total             124648                       # Request fanout histogram
system.tol2bus.reqLayer0.occupancy          733311000                       # Layer occupancy (ticks)
system.tol2bus.reqLayer0.utilization              5.0                       # Layer utilization (%)
system.tol2bus.respLayer1.occupancy          46688996                       # Layer occupancy (ticks)
system.tol2bus.respLayer1.utilization             0.3                       # Layer utilization (%)
system.tol2bus.respLayer0.occupancy         570905000                       # Layer occupancy (ticks)
system.tol2bus.respLayer0.utilization             3.9                       # Layer utilization (%)
system.voltage_domain.voltage                       1                       # Voltage in Volts
system.clk_domain.clock                          1000                       # Clock period in ticks
system.l2.pwrStateResidencyTicks::UNDEFINED  14734996000                       # Cumulative time (in ticks) in various power states
system.l2.demand_hits::.cpu.inst               113848                       # number of demand (read+write) hits
system.l2.demand_hits::.cpu.data                  344                       # number of demand (read+write) hits
system.l2.demand_hits::total                   114192                       # number of demand (read+write) hits
system.l2.overall_hits::.cpu.inst              113848                       # number of overall hits
system.l2.overall_hits::.cpu.data                 344                       # number of overall hits
system.l2.overall_hits::total                  114192                       # number of overall hits
system.l2.demand_misses::.cpu.inst                333                       # number of demand (read+write) misses
system.l2.demand_misses::.cpu.data               8993                       # number of demand (read+write) misses
system.l2.demand_misses::total                   9326                       # number of demand (read+write) misses
system.l2.overall_misses::.cpu.inst               333                       # number of overall misses
system.l2.overall_misses::.cpu.data              8993                       # number of overall misses
system.l2.overall_misses::total                  9326                       # number of overall misses
system.l2.demand_miss_latency::.cpu.inst     34846000                       # number of demand (read+write) miss cycles
system.l2.demand_miss_latency::.cpu.data    977879000                       # number of demand (read+write) miss cycles
system.l2.demand_miss_latency::total       1012725000                       # number of demand (read+write) miss cycles
system.l2.overall_miss_latency::.cpu.inst     34846000                       # number of overall miss cycles
system.l2.overall_miss_latency::.cpu.data    977879000                       # number of overall miss cycles
system.l2.overall_miss_latency::total      1012725000                       # number of overall miss cycles
system.l2.demand_accesses::.cpu.inst           114181                       # number of demand (read+write) accesses
system.l2.demand_accesses::.cpu.data             9337                       # number of demand (read+write) accesses
system.l2.demand_accesses::total               123518                       # number of demand (read+write) accesses
system.l2.overall_accesses::.cpu.inst          114181                       # number of overall (read+write) accesses
system.l2.overall_accesses::.cpu.data            9337                       # number of overall (read+write) accesses
system.l2.overall_accesses::total              123518                       # number of overall (read+write) accesses
system.l2.demand_miss_rate::.cpu.inst        0.002916                       # miss rate for demand accesses
system.l2.demand_miss_rate::.cpu.data        0.963157                       # miss rate for demand accesses
system.l2.demand_miss_rate::total            0.075503                       # miss rate for demand accesses
system.l2.overall_miss_rate::.cpu.inst       0.002916                       # miss rate for overall accesses
system.l2.overall_miss_rate::.cpu.data       0.963157                       # miss rate for overall accesses
system.l2.overall_miss_rate::total           0.075503                       # miss rate for overall accesses
system.l2.demand_avg_miss_latency::.cpu.inst 104642.642643                       # average overall miss latency
system.l2.demand_avg_miss_latency::.cpu.data 108737.796064                       # average overall miss latency
system.l2.demand_avg_miss_latency::total 108591.571949                       # average overall miss latency
system.l2.overall_avg_miss_latency::.cpu.inst 104642.642643                       # average overall miss latency
system.l2.overall_avg_miss_latency::.cpu.data 108737.796064                       # average overall miss latency
system.l2.overall_avg_miss_latency::total 108591.571949                       # average overall miss latency
system.l2.blocked_cycles::no_mshrs                  0                       # number of cycles access was blocked
system.l2.blocked_cycles::no_targets                0                       # number of cycles access was blocked
system.l2.blocked::no_mshrs                         0                       # number of cycles access was blocked
system.l2.blocked::no_targets                       0                       # number of cycles access was blocked
system.l2.avg_blocked_cycles::no_mshrs            nan                       # average number of cycles each access was blocked
system.l2.avg_blocked_cycles::no_targets          nan                       # average number of cycles each access was blocked
system.l2.writebacks::.writebacks                 758                       # number of writebacks
system.l2.writebacks::total                       758                       # number of writebacks
system.l2.demand_mshr_hits::.cpu.data               4                       # number of demand (read+write) MSHR hits
system.l2.demand_mshr_hits::total                   4                       # number of demand (read+write) MSHR hits
system.l2.overall_mshr_hits::.cpu.data              4                       # number of overall MSHR hits
system.l2.overall_mshr_hits::total                  4                       # number of overall MSHR hits
system.l2.demand_mshr_misses::.cpu.inst           333                       # number of demand (read+write) MSHR misses
system.l2.demand_mshr_misses::.cpu.data          8989                       # number of demand (read+write) MSHR misses
system.l2.demand_mshr_misses::total              9322                       # number of demand (read+write) MSHR misses
system.l2.overall_mshr_misses::.cpu.inst          333                       # number of overall MSHR misses
system.l2.overall_mshr_misses::.cpu.data         8989                       # number of overall MSHR misses
system.l2.overall_mshr_misses::total             9322                       # number of overall MSHR misses
system.l2.demand_mshr_miss_latency::.cpu.inst     28186000                       # number of demand (read+write) MSHR miss cycles
system.l2.demand_mshr_miss_latency::.cpu.data    797749000                       # number of demand (read+write) MSHR miss cycles
system.l2.demand_mshr_miss_latency::total    825935000                       # number of demand (read+write) MSHR miss cycles
system.l2.overall_mshr_miss_latency::.cpu.inst     28186000                       # number of overall MSHR miss cycles
system.l2.overall_mshr_miss_latency::.cpu.data    797749000                       # number of overall MSHR miss cycles
system.l2.overall_mshr_miss_latency::total    825935000                       # number of overall MSHR miss cycles
system.l2.demand_mshr_miss_rate::.cpu.inst     0.002916                       # mshr miss rate for demand accesses
system.l2.demand_mshr_miss_rate::.cpu.data     0.962729                       # mshr miss rate for demand accesses
system.l2.demand_mshr_miss_rate::total       0.075471                       # mshr miss rate for demand accesses
system.l2.overall_mshr_miss_rate::.cpu.inst     0.002916                       # mshr miss rate for overall accesses
system.l2.overall_mshr_miss_rate::.cpu.data     0.962729                       # mshr miss rate for overall accesses
system.l2.overall_mshr_miss_rate::total      0.075471                       # mshr miss rate for overall accesses
system.l2.demand_avg_mshr_miss_latency::.cpu.inst 84642.642643                       # average overall mshr miss latency
system.l2.demand_avg_mshr_miss_latency::.cpu.data 88747.246635                       # average overall mshr miss latency
system.l2.demand_avg_mshr_miss_latency::total 88600.622184                       # average overall mshr miss latency
system.l2.overall_avg_mshr_miss_latency::.cpu.inst 84642.642643                       # average overall mshr miss latency
system.l2.overall_avg_mshr_miss_latency::.cpu.data 88747.246635                       # average overall mshr miss latency
system.l2.overall_avg_mshr_miss_latency::total 88600.622184                       # average overall mshr miss latency
system.l2.replacements                           1130                       # number of replacements
system.l2.WritebackDirty_hits::.writebacks         7925                       # number of WritebackDirty hits
system.l2.WritebackDirty_hits::total             7925                       # number of WritebackDirty hits
system.l2.WritebackDirty_accesses::.writebacks         7925                       # number of WritebackDirty accesses(hits+misses)
system.l2.WritebackDirty_accesses::total         7925                       # number of WritebackDirty accesses(hits+misses)
system.l2.WritebackClean_hits::.writebacks       112820                       # number of WritebackClean hits
system.l2.WritebackClean_hits::total           112820                       # number of WritebackClean hits
system.l2.WritebackClean_accesses::.writebacks       112820                       # number of WritebackClean accesses(hits+misses)
system.l2.WritebackClean_accesses::total       112820                       # number of WritebackClean accesses(hits+misses)
system.l2.ReadExReq_hits::.cpu.data                 6                       # number of ReadExReq hits
system.l2.ReadExReq_hits::total                     6                       # number of ReadExReq hits
system.l2.ReadExReq_misses::.cpu.data            8849                       # number of ReadExReq misses
system.l2.ReadExReq_misses::total                8849                       # number of ReadExReq misses
system.l2.ReadExReq_miss_latency::.cpu.data    962007000                       # number of ReadExReq miss cycles
system.l2.ReadExReq_miss_latency::total     962007000                       # number of ReadExReq miss cycles
system.l2.ReadExReq_accesses::.cpu.data          8855                       # number of ReadExReq accesses(hits+misses)
system.l2.ReadExReq_accesses::total              8855                       # number of ReadExReq accesses(hits+misses)
system.l2.ReadExReq_miss_rate::.cpu.data     0.999322                       # miss rate for ReadExReq accesses
system.l2.ReadExReq_miss_rate::total         0.999322                       # miss rate for ReadExReq accesses
system.l2.ReadExReq_avg_miss_latency::.cpu.data 108713.639959                       # average ReadExReq miss latency
system.l2.ReadExReq_avg_miss_latency::total 108713.639959                       # average ReadExReq miss latency
system.l2.ReadExReq_mshr_misses::.cpu.data         8849                       # number of ReadExReq MSHR misses
system.l2.ReadExReq_mshr_misses::total           8849                       # number of ReadExReq MSHR misses
system.l2.ReadExReq_mshr_miss_latency::.cpu.data    785027000                       # number of ReadExReq MSHR miss cycles
system.l2.ReadExReq_mshr_miss_latency::total    785027000                       # number of ReadExReq MSHR miss cycles
system.l2.ReadExReq_mshr_miss_rate::.cpu.data     0.999322                       # mshr miss rate for ReadExReq accesses
system.l2.ReadExReq_mshr_miss_rate::total     0.999322                       # mshr miss rate for ReadExReq accesses
system.l2.ReadExReq_avg_mshr_miss_latency::.cpu.data 88713.639959                       # average ReadExReq mshr miss latency
system.l2.ReadExReq_avg_mshr_miss_latency::total 88713.639959                       # average ReadExReq mshr miss latency
system.l2.ReadCleanReq_hits::.cpu.inst         113848                       # number of ReadCleanReq hits
system.l2.ReadCleanReq_hits::total             113848                       # number of ReadCleanReq hits
system.l2.ReadCleanReq_misses::.cpu.inst          333                       # number of ReadCleanReq misses
system.l2.ReadCleanReq_misses::total              333                       # number of ReadCleanReq misses
system.l2.ReadCleanReq_miss_latency::.cpu.inst     34846000                       # number of ReadCleanReq miss cycles
system.l2.ReadCleanReq_miss_latency::total     34846000                       # number of ReadCleanReq miss cycles
system.l2.ReadCleanReq_accesses::.cpu.inst       114181                       # number of ReadCleanReq accesses(hits+misses)
system.l2.ReadCleanReq_accesses::total         114181                       # number of ReadCleanReq accesses(hits+misses)
system.l2.ReadCleanReq_miss_rate::.cpu.inst     0.002916                       # miss rate for ReadCleanReq accesses
system.l2.ReadCleanReq_miss_rate::total      0.002916                       # miss rate for ReadCleanReq accesses
system.l2.ReadCleanReq_avg_miss_latency::.cpu.inst 104642.642643                       # average ReadCleanReq miss latency
system.l2.ReadCleanReq_avg_miss_latency::total 104642.642643                       # average ReadCleanReq miss latency
system.l2.ReadCleanReq_mshr_misses::.cpu.inst          333                       # number of ReadCleanReq MSHR misses
system.l2.ReadCleanReq_mshr_misses::total          333                       # number of ReadCleanReq MSHR misses
system.l2.ReadCleanReq_mshr_miss_latency::.cpu.inst     28186000                       # number of ReadCleanReq MSHR miss cycles
system.l2.ReadCleanReq_mshr_miss_latency::total     28186000                       # number of ReadCleanReq MSHR miss cycles
system.l2.ReadCleanReq_mshr_miss_rate::.cpu.inst     0.002916                       # mshr miss rate for ReadCleanReq accesses
system.l2.ReadCleanReq_mshr_miss_rate::total     0.002916                       # mshr miss rate for ReadCleanReq accesses
system.l2.ReadCleanReq_avg_mshr_miss_latency::.cpu.inst 84642.642643                       # average ReadCleanReq mshr miss latency
system.l2.ReadCleanReq_avg_mshr_miss_latency::total 84642.642643                       # average ReadCleanReq mshr miss latency
system.l2.ReadSharedReq_hits::.cpu.data           338                       # number of ReadSharedReq hits
system.l2.ReadSharedReq_hits::total               338                       # number of ReadSharedReq hits
system.l2.ReadSharedReq_misses::.cpu.data          144                       # number of ReadSharedReq misses
system.l2.ReadSharedReq_misses::total             144                       # number of ReadSharedReq misses
system.l2.ReadSharedReq_miss_latency::.cpu.data     15872000                       # number of ReadSharedReq miss cycles
system.l2.ReadSharedReq_miss_latency::total     15872000                       # number of ReadSharedReq miss cycles
system.l2.ReadSharedReq_accesses::.cpu.data          482                       # number of ReadSharedReq accesses(hits+misses)
system.l2.ReadSharedReq_accesses::total           482                       # number of ReadSharedReq accesses(hits+misses)
system.l2.ReadSharedReq_miss_rate::.cpu.data     0.298755                       # miss rate for ReadSharedReq accesses
system.l2.ReadSharedReq_miss_rate::total     0.298755                       # miss rate for ReadSharedReq accesses
system.l2.ReadSharedReq_avg_miss_latency::.cpu.data 110222.222222                       # average ReadSharedReq miss latency
system.l2.ReadSharedReq_avg_miss_latency::total 110222.222222                       # average ReadSharedReq miss latency
system.l2.ReadSharedReq_mshr_hits::.cpu.data            4                       # number of ReadSharedReq MSHR hits
system.l2.ReadSharedReq_mshr_hits::total            4                       # number of ReadSharedReq MSHR hits
system.l2.ReadSharedReq_mshr_misses::.cpu.data          140                       # number of ReadSharedReq MSHR misses
system.l2.ReadSharedReq_mshr_misses::total          140                       # number of ReadSharedReq MSHR misses
system.l2.ReadSharedReq_mshr_miss_latency::.cpu.data     12722000                       # number of ReadSharedReq MSHR miss cycles
system.l2.ReadSharedReq_mshr_miss_latency::total     12722000                       # number of ReadSharedReq MSHR miss cycles
system.l2.ReadSharedReq_mshr_miss_rate::.cpu.data     0.290456                       # mshr miss rate for ReadSharedReq accesses
system.l2.ReadSharedReq_mshr_miss_rate::total     0.290456                       # mshr miss rate for ReadSharedReq accesses
system.l2.ReadSharedReq_avg_mshr_miss_latency::.cpu.data 90871.428571                       # average ReadSharedReq mshr miss latency
system.l2.ReadSharedReq_avg_mshr_miss_latency::total 90871.428571                       # average ReadSharedReq mshr miss latency
system.l2.tags.pwrStateResidencyTicks::UNDEFINED  14734996000                       # Cumulative time (in ticks) in various power states
system.l2.tags.tagsinuse                  4767.964637                       # Cycle average of tags in use
system.l2.tags.total_refs                      244629                       # Total number of references to valid blocks.
system.l2.tags.sampled_refs                      9322                       # Sample count of references to valid blocks.
system.l2.tags.avg_refs                     26.242115                       # Average number of references to valid blocks.
system.l2.tags.warmup_cycle                     92000                       # Cycle when the warmup percentage was hit.
system.l2.tags.occ_blocks::.cpu.inst       264.456233                       # Average occupied blocks per requestor
system.l2.tags.occ_blocks::.cpu.data      4503.508403                       # Average occupied blocks per requestor
system.l2.tags.occ_percent::.cpu.inst        0.032282                       # Average percentage of cache occupancy
system.l2.tags.occ_percent::.cpu.data        0.549745                       # Average percentage of cache occupancy
system.l2.tags.occ_percent::total            0.582027                       # Average percentage of cache occupancy
system.l2.tags.occ_task_id_blocks::1024          8192                       # Occupied blocks per task id
system.l2.tags.age_task_id_blocks_1024::0            6                       # Occupied blocks per task id
system.l2.tags.age_task_id_blocks_1024::1           52                       # Occupied blocks per task id
system.l2.tags.age_task_id_blocks_1024::2          522                       # Occupied blocks per task id
system.l2.tags.age_task_id_blocks_1024::3         5385                       # Occupied blocks per task id
system.l2.tags.age_task_id_blocks_1024::4         2227                       # Occupied blocks per task id
system.l2.tags.occ_task_id_percent::1024            1                       # Percentage of cache occupancy per task id
system.l2.tags.tag_accesses                    987854                       # Number of tag accesses
system.l2.tags.data_accesses                   987854                       # Number of data accesses
system.cpu_voltage_domain.voltage                   1                       # Voltage in Volts
system.mem_ctrls.pwrStateResidencyTicks::UNDEFINED  14734996000                       # Cumulative time (in ticks) in various power states
system.mem_ctrls.bytes_read::.cpu.inst          42624                       # Number of bytes read from this memory
system.mem_ctrls.bytes_read::.cpu.data        1150592                       # Number of bytes read from this memory
system.mem_ctrls.bytes_read::total            1193216                       # Number of bytes read from this memory
system.mem_ctrls.bytes_inst_read::.cpu.inst        42624                       # Number of instructions bytes read from this memory
system.mem_ctrls.bytes_inst_read::total         42624                       # Number of instructions bytes read from this memory
system.mem_ctrls.bytes_written::.writebacks        97024                       # Number of bytes written to this memory
system.mem_ctrls.bytes_written::total           97024                       # Number of bytes written to this memory
system.mem_ctrls.num_reads::.cpu.inst             333                       # Number of read requests responded to by this memory
system.mem_ctrls.num_reads::.cpu.data            8989                       # Number of read requests responded to by this memory
system.mem_ctrls.num_reads::total                9322                       # Number of read requests responded to by this memory
system.mem_ctrls.num_writes::.writebacks          758                       # Number of write requests responded to by this memory
system.mem_ctrls.num_writes::total                758                       # Number of write requests responded to by this memory
system.mem_ctrls.bw_read::.cpu.inst           2892705                       # Total read bandwidth from this memory (bytes/s)
system.mem_ctrls.bw_read::.cpu.data          78085668                       # Total read bandwidth from this memory (bytes/s)
system.mem_ctrls.bw_read::total              80978373                       # Total read bandwidth from this memory (bytes/s)
system.mem_ctrls.bw_inst_read::.cpu.inst      2892705                       # Instruction read bandwidth from this memory (bytes/s)
system.mem_ctrls.bw_inst_read::total          2892705                       # Instruction read bandwidth from this memory (bytes/s)
system.mem_ctrls.bw_write::.writebacks        6584596                       # Write bandwidth from this memory (bytes/s)
system.mem_ctrls.bw_write::total              6584596                       # Write bandwidth from this memory (bytes/s)
system.mem_ctrls.bw_total::.writebacks        6584596                       # Total bandwidth to/from this memory (bytes/s)
system.mem_ctrls.bw_total::.cpu.inst          2892705                       # Total bandwidth to/from this memory (bytes/s)
system.mem_ctrls.bw_total::.cpu.data         78085668                       # Total bandwidth to/from this memory (bytes/s)
system.mem_ctrls.bw_total::total             87562969                       # Total bandwidth to/from this memory (bytes/s)
system.mem_ctrls.avgPriority_.writebacks::samples      1516.00                       # Average QoS priority value for accepted requests
system.mem_ctrls.avgPriority_.cpu.inst::samples       666.00                       # Average QoS priority value for accepted requests
system.mem_ctrls.avgPriority_.cpu.data::samples     17978.00                       # Average QoS priority value for accepted requests
system.mem_ctrls.priorityMinLatency      0.000000018750                       # per QoS priority minimum request to response latency (s)
system.mem_ctrls.priorityMaxLatency      0.006219280250                       # per QoS priority maximum request to response latency (s)
system.mem_ctrls.numReadWriteTurnArounds           84                       # Number of turnarounds from READ to WRITE
system.mem_ctrls.numWriteReadTurnArounds           84                       # Number of turnarounds from WRITE to READ
system.mem_ctrls.numStayReadState               32490                       # Number of times bus staying in READ state
system.mem_ctrls.numStayWriteState               1409                       # Number of times bus staying in WRITE state
system.mem_ctrls.readReqs                        9322                       # Number of read requests accepted
system.mem_ctrls.writeReqs                        758                       # Number of write requests accepted
system.mem_ctrls.readBursts                     18644                       # Number of DRAM read bursts, including those serviced by the write queue
system.mem_ctrls.writeBursts                     1516                       # Number of DRAM write bursts, including those merged in the write queue
system.mem_ctrls.servicedByWrQ                      0                       # Number of DRAM read bursts serviced by the write queue
system.mem_ctrls.mergedWrBursts                     0                       # Number of DRAM write bursts merged with an existing one
system.mem_ctrls.neitherReadNorWriteReqs            0                       # Number of requests that are neither read nor write
system.mem_ctrls.perBankRdBursts::0              1224                       # Per bank write bursts
system.mem_ctrls.perBankRdBursts::1              1080                       # Per bank write bursts
system.mem_ctrls.perBankRdBursts::2              1058                       # Per bank write bursts
system.mem_ctrls.perBankRdBursts::3              1254                       # Per bank write bursts
system.mem_ctrls.perBankRdBursts::4              1268                       # Per bank write bursts
system.mem_ctrls.perBankRdBursts::5              1156                       # Per bank write bursts
system.mem_ctrls.perBankRdBursts::6              1152                       # Per bank write bursts
system.mem_ctrls.perBankRdBursts::7              1188                       # Per bank write bursts
system.mem_ctrls.perBankRdBursts::8              1054                       # Per bank write bursts
system.mem_ctrls.perBankRdBursts::9              1092                       # Per bank write bursts
system.mem_ctrls.perBankRdBursts::10             1074                       # Per bank write bursts
system.mem_ctrls.perBankRdBursts::11             1116                       # Per bank write bursts
system.mem_ctrls.perBankRdBursts::12             1236                       # Per bank write bursts
system.mem_ctrls.perBankRdBursts::13             1186                       # Per bank write bursts
system.mem_ctrls.perBankRdBursts::14             1288                       # Per bank write bursts
system.mem_ctrls.perBankRdBursts::15             1218                       # Per bank write bursts
system.mem_ctrls.perBankWrBursts::0               132                       # Per bank write bursts
system.mem_ctrls.perBankWrBursts::1                16                       # Per bank write bursts
system.mem_ctrls.perBankWrBursts::2                 8                       # Per bank write bursts
system.mem_ctrls.perBankWrBursts::3               125                       # Per bank write bursts
system.mem_ctrls.perBankWrBursts::4               212                       # Per bank write bursts
system.mem_ctrls.perBankWrBursts::5               130                       # Per bank write bursts
system.mem_ctrls.perBankWrBursts::6               128                       # Per bank write bursts
system.mem_ctrls.perBankWrBursts::7               134                       # Per bank write bursts
system.mem_ctrls.perBankWrBursts::8                 2                       # Per bank write bursts
system.mem_ctrls.perBankWrBursts::9                14                       # Per bank write bursts
system.mem_ctrls.perBankWrBursts::10                6                       # Per bank write bursts
system.mem_ctrls.perBankWrBursts::11               10                       # Per bank write bursts
system.mem_ctrls.perBankWrBursts::12              130                       # Per bank write bursts
system.mem_ctrls.perBankWrBursts::13              134                       # Per bank write bursts
system.mem_ctrls.perBankWrBursts::14              170                       # Per bank write bursts
system.mem_ctrls.perBankWrBursts::15              142                       # Per bank write bursts
system.mem_ctrls.avgRdQLen                       2.00                       # Average read queue length when enqueuing
system.mem_ctrls.avgWrQLen                      10.37                       # Average write queue length when enqueuing
system.mem_ctrls.totQLat                    296948500                       # Total ticks spent queuing
system.mem_ctrls.totBusLat                   93220000                       # Total ticks spent in databus transfers
system.mem_ctrls.totMemAccLat               646523500                       # Total ticks spent from burst creation until serviced by the DRAM
system.mem_ctrls.avgQLat                     15927.30                       # Average queueing delay per DRAM burst
system.mem_ctrls.avgBusLat                    5000.00                       # Average bus latency per DRAM burst
system.mem_ctrls.avgMemAccLat                34677.30                       # Average memory access latency per DRAM burst
system.mem_ctrls.numRdRetry                         0                       # Number of times read queue was full causing retry
system.mem_ctrls.numWrRetry                         0                       # Number of times write queue was full causing retry
system.mem_ctrls.readRowHits                    12562                       # Number of row buffer hits during reads
system.mem_ctrls.writeRowHits                    1312                       # Number of row buffer hits during writes
system.mem_ctrls.readRowHitRate                 67.38                       # Row buffer hit rate for reads
system.mem_ctrls.writeRowHitRate                86.54                       # Row buffer hit rate for writes
system.mem_ctrls.readPktSize::0                     0                       # Read request sizes (log2)
system.mem_ctrls.readPktSize::1                     0                       # Read request sizes (log2)
system.mem_ctrls.readPktSize::2                     0                       # Read request sizes (log2)
system.mem_ctrls.readPktSize::3                     0                       # Read request sizes (log2)
system.mem_ctrls.readPktSize::4                     0                       # Read request sizes (log2)
system.mem_ctrls.readPktSize::5                     0                       # Read request sizes (log2)
system.mem_ctrls.readPktSize::6                 18644                       # Read request sizes (log2)
system.mem_ctrls.writePktSize::0                    0                       # Write request sizes (log2)
system.mem_ctrls.writePktSize::1                    0                       # Write request sizes (log2)
system.mem_ctrls.writePktSize::2                    0                       # Write request sizes (log2)
system.mem_ctrls.writePktSize::3                    0                       # Write request sizes (log2)
system.mem_ctrls.writePktSize::4                    0                       # Write request sizes (log2)
system.mem_ctrls.writePktSize::5                    0                       # Write request sizes (log2)
system.mem_ctrls.writePktSize::6                 1516                       # Write request sizes (log2)
system.mem_ctrls.rdQLenPdf::0                    9266                       # What read queue length does an incoming req see
system.mem_ctrls.rdQLenPdf::1                    9270                       # What read queue length does an incoming req see
system.mem_ctrls.rdQLenPdf::2                      53                       # What read queue length does an incoming req see
system.mem_ctrls.rdQLenPdf::3                      50                       # What read queue length does an incoming req see
system.mem_ctrls.rdQLenPdf::4                       3                       # What read queue length does an incoming req see
system.mem_ctrls.rdQLenPdf::5                       2                       # What read queue length does an incoming req see
system.mem_ctrls.rdQLenPdf::6                       0                       # What read queue length does an incoming req see
system.mem_ctrls.rdQLenPdf::7                       0                       # What read queue length does an incoming req see
system.mem_ctrls.rdQLenPdf::8                       0                       # What read queue length does an incoming req see
system.mem_ctrls.rdQLenPdf::9                       0                       # What read queue length does an incoming req see
system.mem_ctrls.rdQLenPdf::10                      0                       # What read queue length does an incoming req see
system.mem_ctrls.rdQLenPdf::11                      0                       # What read queue length does an incoming req see
system.mem_ctrls.rdQLenPdf::12                      0                       # What read queue length does an incoming req see
system.mem_ctrls.rdQLenPdf::13                      0                       # What read queue length does an incoming req see
system.mem_ctrls.rdQLenPdf::14                      0                       # What read queue length does an incoming req see
system.mem_ctrls.rdQLenPdf::15                      0                       # What read queue length does an incoming req see
system.mem_ctrls.rdQLenPdf::16                      0                       # What read queue length does an incoming req see
system.mem_ctrls.rdQLenPdf::17                      0                       # What read queue length does an incoming req see
system.mem_ctrls.rdQLenPdf::18                      0                       # What read queue length does an incoming req see
system.mem_ctrls.rdQLenPdf::19                      0                       # What read queue length does an incoming req see
system.mem_ctrls.rdQLenPdf::20                      0                       # What read queue length does an incoming req see
system.mem_ctrls.rdQLenPdf::21                      0                       # What read queue length does an incoming req see
system.mem_ctrls.rdQLenPdf::22                      0                       # What read queue length does an incoming req see
system.mem_ctrls.rdQLenPdf::23                      0                       # What read queue length does an incoming req see
system.mem_ctrls.rdQLenPdf::24                      0                       # What read queue length does an incoming req see
system.mem_ctrls.rdQLenPdf::25                      0                       # What read queue length does an incoming req see
system.mem_ctrls.rdQLenPdf::26                      0                       # What read queue length does an incoming req see
system.mem_ctrls.rdQLenPdf::27                      0                       # What read queue length does an incoming req see
system.mem_ctrls.rdQLenPdf::28                      0                       # What read queue length does an incoming req see
system.mem_ctrls.rdQLenPdf::29                      0                       # What read queue length does an incoming req see
system.mem_ctrls.rdQLenPdf::30                      0                       # What read queue length does an incoming req see
system.mem_ctrls.rdQLenPdf::31                      0                       # What read queue length does an incoming req see
system.mem_ctrls.wrQLenPdf::0                       1                       # What write queue length does an incoming req see
system.mem_ctrls.wrQLenPdf::1                       1                       # What write queue length does an incoming req see
system.mem_ctrls.wrQLenPdf::2                       1                       # What write queue length does an incoming req see
system.mem_ctrls.wrQLenPdf::3                       1                       # What write queue length does an incoming req see
system.mem_ctrls.wrQLenPdf::4                       1                       # What write queue length does an incoming req see
system.mem_ctrls.wrQLenPdf::5                       1                       # What write queue length does an incoming req see
system.mem_ctrls.wrQLenPdf::6                       1                       # What write queue length does an incoming req see
system.mem_ctrls.wrQLenPdf::7                       1                       # What write queue length does an incoming req see
system.mem_ctrls.wrQLenPdf::8                       1                       # What write queue length does an incoming req see
system.mem_ctrls.wrQLenPdf::9                       1                       # What write queue length does an incoming req see
system.mem_ctrls.wrQLenPdf::10                      1                       # What write queue length does an incoming req see
system.mem_ctrls.wrQLenPdf::11                      1                       # What write queue length does an incoming req see
system.mem_ctrls.wrQLenPdf::12                      1                       # What write queue length does an incoming req see
system.mem_ctrls.wrQLenPdf::13                      1                       # What write queue length does an incoming req see
system.mem_ctrls.wrQLenPdf::14                      1                       # What write queue length does an incoming req see
system.mem_ctrls.wrQLenPdf::15                     75                       # What write queue length does an incoming req see
system.mem_ctrls.wrQLenPdf::16                     75                       # What write queue length does an incoming req see
system.mem_ctrls.wrQLenPdf::17                     85                       # What write queue length does an incoming req see
system.mem_ctrls.wrQLenPdf::18                     85                       # What write queue length does an incoming req see
system.mem_ctrls.wrQLenPdf::19                     85                       # What write queue length does an incoming req see
system.mem_ctrls.wrQLenPdf::20                     85                       # What write queue length does an incoming req see
system.mem_ctrls.wrQLenPdf::21                     85                       # What write queue length does an incoming req see
system.mem_ctrls.wrQLenPdf::22                     85                       # What write queue length does an incoming req see
system.mem_ctrls.wrQLenPdf::23                     84                       # What write queue length does an incoming req see
system.mem_ctrls.wrQLenPdf::24                     84                       # What write queue length does an incoming req see
system.mem_ctrls.wrQLenPdf::25                     84                       # What write queue length does an incoming req see
system.mem_ctrls.wrQLenPdf::26                     84                       # What write queue length does an incoming req see
system.mem_ctrls.wrQLenPdf::27                     84                       # What write queue length does an incoming req see
system.mem_ctrls.wrQLenPdf::28                     84                       # What write queue length does an incoming req see
system.mem_ctrls.wrQLenPdf::29                     84                       # What write queue length does an incoming req see
system.mem_ctrls.wrQLenPdf::30                     84                       # What write queue length does an incoming req see
system.mem_ctrls.wrQLenPdf::31                     84                       # What write queue length does an incoming req see
system.mem_ctrls.wrQLenPdf::32                     84                       # What write queue length does an incoming req see
system.mem_ctrls.wrQLenPdf::33                      1                       # What write queue length does an incoming req see
system.mem_ctrls.wrQLenPdf::34                      0                       # What write queue length does an incoming req see
system.mem_ctrls.wrQLenPdf::35                      0                       # What write queue length does an incoming req see
system.mem_ctrls.wrQLenPdf::36                      0                       # What write queue length does an incoming req see
system.mem_ctrls.wrQLenPdf::37                      0                       # What write queue length does an incoming req see
system.mem_ctrls.wrQLenPdf::38                      0                       # What write queue length does an incoming req see
system.mem_ctrls.wrQLenPdf::39                      0                       # What write queue length does an incoming req see
system.mem_ctrls.wrQLenPdf::40                      0                       # What write queue length does an incoming req see
system.mem_ctrls.wrQLenPdf::41                      0                       # What write queue length does an incoming req see
system.mem_ctrls.wrQLenPdf::42                      0                       # What write queue length does an incoming req see
system.mem_ctrls.wrQLenPdf::43                      0                       # What write queue length does an incoming req see
system.mem_ctrls.wrQLenPdf::44                      0                       # What write queue length does an incoming req see
system.mem_ctrls.wrQLenPdf::45                      0                       # What write queue length does an incoming req see
system.mem_ctrls.wrQLenPdf::46                      0                       # What write queue length does an incoming req see
system.mem_ctrls.wrQLenPdf::47                      0                       # What write queue length does an incoming req see
system.mem_ctrls.wrQLenPdf::48                      0                       # What write queue length does an incoming req see
system.mem_ctrls.wrQLenPdf::49                      0                       # What write queue length does an incoming req see
system.mem_ctrls.wrQLenPdf::50                      0                       # What write queue length does an incoming req see
system.mem_ctrls.wrQLenPdf::51                      0                       # What write queue length does an incoming req see
system.mem_ctrls.wrQLenPdf::52                      0                       # What write queue length does an incoming req see
system.mem_ctrls.wrQLenPdf::53                      0                       # What write queue length does an incoming req see
system.mem_ctrls.wrQLenPdf::54                      0                       # What write queue length does an incoming req see
system.mem_ctrls.wrQLenPdf::55                      0                       # What write queue length does an incoming req see
system.mem_ctrls.wrQLenPdf::56                      0                       # What write queue length does an incoming req see
system.mem_ctrls.wrQLenPdf::57                      0                       # What write queue length does an incoming req see
system.mem_ctrls.wrQLenPdf::58                      0                       # What write queue length does an incoming req see
system.mem_ctrls.wrQLenPdf::59                      0                       # What write queue length does an incoming req see
system.mem_ctrls.wrQLenPdf::60                      0                       # What write queue length does an incoming req see
system.mem_ctrls.wrQLenPdf::61                      0                       # What write queue length does an incoming req see
system.mem_ctrls.wrQLenPdf::62                      0                       # What write queue length does an incoming req see
system.mem_ctrls.wrQLenPdf::63                      0                       # What write queue length does an incoming req see
system.mem_ctrls.bytesPerActivate::samples         6261                       # Bytes accessed per row activation
system.mem_ctrls.bytesPerActivate::mean    205.799713                       # Bytes accessed per row activation
system.mem_ctrls.bytesPerActivate::gmean   183.642532                       # Bytes accessed per row activation
system.mem_ctrls.bytesPerActivate::stdev   125.639349                       # Bytes accessed per row activation
system.mem_ctrls.bytesPerActivate::0-127            6      0.10%      0.10% # Bytes accessed per row activation
system.mem_ctrls.bytesPerActivate::128-255         3429     54.77%     54.86% # Bytes accessed per row activation
system.mem_ctrls.bytesPerActivate::256-383         2337     37.33%     92.19% # Bytes accessed per row activation
system.mem_ctrls.bytesPerActivate::384-511          353      5.64%     97.83% # Bytes accessed per row activation
system.mem_ctrls.bytesPerActivate::512-639           31      0.50%     98.32% # Bytes accessed per row activation
system.mem_ctrls.bytesPerActivate::640-767           18      0.29%     98.61% # Bytes accessed per row activation
system.mem_ctrls.bytesPerActivate::768-895            9      0.14%     98.75% # Bytes accessed per row activation
system.mem_ctrls.bytesPerActivate::896-1023           10      0.16%     98.91% # Bytes accessed per row activation
system.mem_ctrls.bytesPerActivate::1024-1151           68      1.09%    100.00% # Bytes accessed per row activation
system.mem_ctrls.bytesPerActivate::total         6261                       # Bytes accessed per row activation
system.mem_ctrls.rdPerTurnAround::samples           84                       # Reads before turning the bus around for writes
system.mem_ctrls.rdPerTurnAround::mean     221.857143                       # Reads before turning the bus around for writes
system.mem_ctrls.rdPerTurnAround::gmean     44.466879                       # Reads before turning the bus around for writes
system.mem_ctrls.rdPerTurnAround::stdev   1402.686778                       # Reads before turning the bus around for writes
system.mem_ctrls.rdPerTurnAround::0-511            81     96.43%     96.43% # Reads before turning the bus around for writes
system.mem_ctrls.rdPerTurnAround::512-1023            1      1.19%     97.62% # Reads before turning the bus around for writes
system.mem_ctrls.rdPerTurnAround::1024-1535            1      1.19%     98.81% # Reads before turning the bus around for writes
system.mem_ctrls.rdPerTurnAround::12800-13311            1      1.19%    100.00% # Reads before turning the bus around for writes
system.mem_ctrls.rdPerTurnAround::total            84                       # Reads before turning the bus around for writes
system.mem_ctrls.wrPerTurnAround::samples           84                       # Writes before turning the bus around for reads
system.mem_ctrls.wrPerTurnAround::mean      17.773810                       # Writes before turning the bus around for reads
system.mem_ctrls.wrPerTurnAround::gmean     17.760797                       # Writes before turning the bus around for reads
system.mem_ctrls.wrPerTurnAround::stdev      0.664979                       # Writes before turning the bus around for reads
system.mem_ctrls.wrPerTurnAround::16               10     11.90%     11.90% # Writes before turning the bus around for reads
system.mem_ctrls.wrPerTurnAround::18               73     86.90%     98.81% # Writes before turning the bus around for reads
[...]
system.cpu.icache.ReadReq_mshr_misses::total       114181                       # number of ReadReq MSHR misses
system.cpu.icache.ReadReq_mshr_miss_latency::.cpu.inst   2804698000                       # number of ReadReq MSHR miss cycles
system.cpu.icache.ReadReq_mshr_miss_latency::total   2804698000                       # number of ReadReq MSHR miss cycles
system.cpu.icache.ReadReq_mshr_miss_rate::.cpu.inst     0.045888                       # mshr miss rate for ReadReq accesses
system.cpu.icache.ReadReq_mshr_miss_rate::total     0.045888                       # mshr miss rate for ReadReq accesses
system.cpu.icache.ReadReq_avg_mshr_miss_latency::.cpu.inst 24563.613911                       # average ReadReq mshr miss latency
system.cpu.icache.ReadReq_avg_mshr_miss_latency::total 24563.613911                       # average ReadReq mshr miss latency
system.cpu.icache.tags.pwrStateResidencyTicks::UNDEFINED  14734996000                       # Cumulative time (in ticks) in various power states
system.cpu.icache.tags.tagsinuse           224.594915                       # Cycle average of tags in use
system.cpu.icache.tags.total_refs             2488276                       # Total number of references to valid blocks.
system.cpu.icache.tags.sampled_refs            114181                       # Sample count of references to valid blocks.
system.cpu.icache.tags.avg_refs             21.792382                       # Average number of references to valid blocks.
system.cpu.icache.tags.warmup_cycle            113000                       # Cycle when the warmup percentage was hit.
system.cpu.icache.tags.occ_blocks::.cpu.inst   224.594915                       # Average occupied blocks per requestor
system.cpu.icache.tags.occ_percent::.cpu.inst     0.877324                       # Average percentage of cache occupancy
system.cpu.icache.tags.occ_percent::total     0.877324                       # Average percentage of cache occupancy
system.cpu.icache.tags.occ_task_id_blocks::1024          225                       # Occupied blocks per task id
system.cpu.icache.tags.age_task_id_blocks_1024::0           14                       # Occupied blocks per task id
system.cpu.icache.tags.age_task_id_blocks_1024::3            6                       # Occupied blocks per task id
system.cpu.icache.tags.age_task_id_blocks_1024::4          205                       # Occupied blocks per task id
system.cpu.icache.tags.occ_task_id_percent::1024     0.878906                       # Percentage of cache occupancy per task id
system.cpu.icache.tags.tag_accesses           5090733                       # Number of tag accesses
system.cpu.icache.tags.data_accesses          5090733                       # Number of data accesses
system.cpu.dtb.walker.pwrStateResidencyTicks::UNDEFINED  14734996000                       # Cumulative time (in ticks) in various power states
system.cpu.dtb.stage2_mmu.stage2_tlb.walker.pwrStateResidencyTicks::UNDEFINED  14734996000                       # Cumulative time (in ticks) in various power states
system.cpu.dcache.pwrStateResidencyTicks::UNDEFINED  14734996000                       # Cumulative time (in ticks) in various power states
system.cpu.dcache.demand_hits::.cpu.data      3811012                       # number of demand (read+write) hits
system.cpu.dcache.demand_hits::total          3811012                       # number of demand (read+write) hits
system.cpu.dcache.overall_hits::.cpu.data      3811055                       # number of overall hits
system.cpu.dcache.overall_hits::total         3811055                       # number of overall hits
system.cpu.dcache.demand_misses::.cpu.data        17143                       # number of demand (read+write) misses
system.cpu.dcache.demand_misses::total          17143                       # number of demand (read+write) misses
system.cpu.dcache.overall_misses::.cpu.data        17155                       # number of overall misses
system.cpu.dcache.overall_misses::total         17155                       # number of overall misses
system.cpu.dcache.demand_miss_latency::.cpu.data   1673312000                       # number of demand (read+write) miss cycles
system.cpu.dcache.demand_miss_latency::total   1673312000                       # number of demand (read+write) miss cycles
system.cpu.dcache.overall_miss_latency::.cpu.data   1673312000                       # number of overall miss cycles
system.cpu.dcache.overall_miss_latency::total   1673312000                       # number of overall miss cycles
system.cpu.dcache.demand_accesses::.cpu.data      3828155                       # number of demand (read+write) accesses
system.cpu.dcache.demand_accesses::total      3828155                       # number of demand (read+write) accesses
system.cpu.dcache.overall_accesses::.cpu.data      3828210                       # number of overall (read+write) accesses
system.cpu.dcache.overall_accesses::total      3828210                       # number of overall (read+write) accesses
system.cpu.dcache.demand_miss_rate::.cpu.data     0.004478                       # miss rate for demand accesses
system.cpu.dcache.demand_miss_rate::total     0.004478                       # miss rate for demand accesses
system.cpu.dcache.overall_miss_rate::.cpu.data     0.004481                       # miss rate for overall accesses
system.cpu.dcache.overall_miss_rate::total     0.004481                       # miss rate for overall accesses
system.cpu.dcache.demand_avg_miss_latency::.cpu.data 97609.053258                       # average overall miss latency
system.cpu.dcache.demand_avg_miss_latency::total 97609.053258                       # average overall miss latency
system.cpu.dcache.overall_avg_miss_latency::.cpu.data 97540.775284                       # average overall miss latency
system.cpu.dcache.overall_avg_miss_latency::total 97540.775284                       # average overall miss latency
system.cpu.dcache.blocked_cycles::no_mshrs            0                       # number of cycles access was blocked
system.cpu.dcache.blocked_cycles::no_targets            0                       # number of cycles access was blocked
system.cpu.dcache.blocked::no_mshrs                 0                       # number of cycles access was blocked
system.cpu.dcache.blocked::no_targets               0                       # number of cycles access was blocked
system.cpu.dcache.avg_blocked_cycles::no_mshrs          nan                       # average number of cycles each access was blocked
system.cpu.dcache.avg_blocked_cycles::no_targets          nan                       # average number of cycles each access was blocked
system.cpu.dcache.writebacks::.writebacks         7925                       # number of writebacks
system.cpu.dcache.writebacks::total              7925                       # number of writebacks
system.cpu.dcache.demand_mshr_hits::.cpu.data         7814                       # number of demand (read+write) MSHR hits
system.cpu.dcache.demand_mshr_hits::total         7814                       # number of demand (read+write) MSHR hits
system.cpu.dcache.overall_mshr_hits::.cpu.data         7814                       # number of overall MSHR hits
system.cpu.dcache.overall_mshr_hits::total         7814                       # number of overall MSHR hits
system.cpu.dcache.demand_mshr_misses::.cpu.data         9329                       # number of demand (read+write) MSHR misses
system.cpu.dcache.demand_mshr_misses::total         9329                       # number of demand (read+write) MSHR misses
system.cpu.dcache.overall_mshr_misses::.cpu.data         9337                       # number of overall MSHR misses
system.cpu.dcache.overall_mshr_misses::total         9337                       # number of overall MSHR misses
system.cpu.dcache.demand_mshr_miss_latency::.cpu.data   1012232000                       # number of demand (read+write) MSHR miss cycles
system.cpu.dcache.demand_mshr_miss_latency::total   1012232000                       # number of demand (read+write) MSHR miss cycles
system.cpu.dcache.overall_mshr_miss_latency::.cpu.data   1013158000                       # number of overall MSHR miss cycles
system.cpu.dcache.overall_mshr_miss_latency::total   1013158000                       # number of overall MSHR miss cycles
system.cpu.dcache.demand_mshr_miss_rate::.cpu.data     0.002437                       # mshr miss rate for demand accesses
system.cpu.dcache.demand_mshr_miss_rate::total     0.002437                       # mshr miss rate for demand accesses
system.cpu.dcache.overall_mshr_miss_rate::.cpu.data     0.002439                       # mshr miss rate for overall accesses
system.cpu.dcache.overall_mshr_miss_rate::total     0.002439                       # mshr miss rate for overall accesses
system.cpu.dcache.demand_avg_mshr_miss_latency::.cpu.data 108503.805338                       # average overall mshr miss latency
system.cpu.dcache.demand_avg_mshr_miss_latency::total 108503.805338                       # average overall mshr miss latency
system.cpu.dcache.overall_avg_mshr_miss_latency::.cpu.data 108510.013923                       # average overall mshr miss latency
system.cpu.dcache.overall_avg_mshr_miss_latency::total 108510.013923                       # average overall mshr miss latency
system.cpu.dcache.replacements                   8313                       # number of replacements
system.cpu.dcache.ReadReq_hits::.cpu.data      2299339                       # number of ReadReq hits
system.cpu.dcache.ReadReq_hits::total         2299339                       # number of ReadReq hits
system.cpu.dcache.ReadReq_misses::.cpu.data          807                       # number of ReadReq misses
system.cpu.dcache.ReadReq_misses::total           807                       # number of ReadReq misses
system.cpu.dcache.ReadReq_miss_latency::.cpu.data     40590000                       # number of ReadReq miss cycles
system.cpu.dcache.ReadReq_miss_latency::total     40590000                       # number of ReadReq miss cycles
system.cpu.dcache.ReadReq_accesses::.cpu.data      2300146                       # number of ReadReq accesses(hits+misses)
system.cpu.dcache.ReadReq_accesses::total      2300146                       # number of ReadReq accesses(hits+misses)
system.cpu.dcache.ReadReq_miss_rate::.cpu.data     0.000351                       # miss rate for ReadReq accesses
system.cpu.dcache.ReadReq_miss_rate::total     0.000351                       # miss rate for ReadReq accesses
system.cpu.dcache.ReadReq_avg_miss_latency::.cpu.data 50297.397770                       # average ReadReq miss latency
system.cpu.dcache.ReadReq_avg_miss_latency::total 50297.397770                       # average ReadReq miss latency
system.cpu.dcache.ReadReq_mshr_hits::.cpu.data          333                       # number of ReadReq MSHR hits
system.cpu.dcache.ReadReq_mshr_hits::total          333                       # number of ReadReq MSHR hits
system.cpu.dcache.ReadReq_mshr_misses::.cpu.data          474                       # number of ReadReq MSHR misses
system.cpu.dcache.ReadReq_mshr_misses::total          474                       # number of ReadReq MSHR misses
system.cpu.dcache.ReadReq_mshr_miss_latency::.cpu.data     23533000                       # number of ReadReq MSHR miss cycles
system.cpu.dcache.ReadReq_mshr_miss_latency::total     23533000                       # number of ReadReq MSHR miss cycles
system.cpu.dcache.ReadReq_mshr_miss_rate::.cpu.data     0.000206                       # mshr miss rate for ReadReq accesses
system.cpu.dcache.ReadReq_mshr_miss_rate::total     0.000206                       # mshr miss rate for ReadReq accesses
system.cpu.dcache.ReadReq_avg_mshr_miss_latency::.cpu.data 49647.679325                       # average ReadReq mshr miss latency
system.cpu.dcache.ReadReq_avg_mshr_miss_latency::total 49647.679325                       # average ReadReq mshr miss latency
system.cpu.dcache.WriteReq_hits::.cpu.data      1511673                       # number of WriteReq hits
system.cpu.dcache.WriteReq_hits::total        1511673                       # number of WriteReq hits
system.cpu.dcache.WriteReq_misses::.cpu.data        16336                       # number of WriteReq misses
system.cpu.dcache.WriteReq_misses::total        16336                       # number of WriteReq misses
system.cpu.dcache.WriteReq_miss_latency::.cpu.data   1632722000                       # number of WriteReq miss cycles
system.cpu.dcache.WriteReq_miss_latency::total   1632722000                       # number of WriteReq miss cycles
system.cpu.dcache.WriteReq_accesses::.cpu.data      1528009                       # number of WriteReq accesses(hits+misses)
system.cpu.dcache.WriteReq_accesses::total      1528009                       # number of WriteReq accesses(hits+misses)
system.cpu.dcache.WriteReq_miss_rate::.cpu.data     0.010691                       # miss rate for WriteReq accesses
system.cpu.dcache.WriteReq_miss_rate::total     0.010691                       # miss rate for WriteReq accesses
system.cpu.dcache.WriteReq_avg_miss_latency::.cpu.data 99946.253673                       # average WriteReq miss latency
system.cpu.dcache.WriteReq_avg_miss_latency::total 99946.253673                       # average WriteReq miss latency
system.cpu.dcache.WriteReq_mshr_hits::.cpu.data         7481                       # number of WriteReq MSHR hits
system.cpu.dcache.WriteReq_mshr_hits::total         7481                       # number of WriteReq MSHR hits
system.cpu.dcache.WriteReq_mshr_misses::.cpu.data         8855                       # number of WriteReq MSHR misses
system.cpu.dcache.WriteReq_mshr_misses::total         8855                       # number of WriteReq MSHR misses
system.cpu.dcache.WriteReq_mshr_miss_latency::.cpu.data    988699000                       # number of WriteReq MSHR miss cycles
system.cpu.dcache.WriteReq_mshr_miss_latency::total    988699000                       # number of WriteReq MSHR miss cycles
system.cpu.dcache.WriteReq_mshr_miss_rate::.cpu.data     0.005795                       # mshr miss rate for WriteReq accesses
system.cpu.dcache.WriteReq_mshr_miss_rate::total     0.005795                       # mshr miss rate for WriteReq accesses
system.cpu.dcache.WriteReq_avg_mshr_miss_latency::.cpu.data 111654.319593                       # average WriteReq mshr miss latency
system.cpu.dcache.WriteReq_avg_mshr_miss_latency::total 111654.319593                       # average WriteReq mshr miss latency
system.cpu.dcache.SoftPFReq_hits::.cpu.data           43                       # number of SoftPFReq hits
system.cpu.dcache.SoftPFReq_hits::total            43                       # number of SoftPFReq hits
system.cpu.dcache.SoftPFReq_misses::.cpu.data           12                       # number of SoftPFReq misses
system.cpu.dcache.SoftPFReq_misses::total           12                       # number of SoftPFReq misses
system.cpu.dcache.SoftPFReq_accesses::.cpu.data           55                       # number of SoftPFReq accesses(hits+misses)
system.cpu.dcache.SoftPFReq_accesses::total           55                       # number of SoftPFReq accesses(hits+misses)
system.cpu.dcache.SoftPFReq_miss_rate::.cpu.data     0.218182                       # miss rate for SoftPFReq accesses
system.cpu.dcache.SoftPFReq_miss_rate::total     0.218182                       # miss rate for SoftPFReq accesses
system.cpu.dcache.SoftPFReq_mshr_misses::.cpu.data            8                       # number of SoftPFReq MSHR misses
system.cpu.dcache.SoftPFReq_mshr_misses::total            8                       # number of SoftPFReq MSHR misses
system.cpu.dcache.SoftPFReq_mshr_miss_latency::.cpu.data       926000                       # number of SoftPFReq MSHR miss cycles
system.cpu.dcache.SoftPFReq_mshr_miss_latency::total       926000                       # number of SoftPFReq MSHR miss cycles
system.cpu.dcache.SoftPFReq_mshr_miss_rate::.cpu.data     0.145455                       # mshr miss rate for SoftPFReq accesses
system.cpu.dcache.SoftPFReq_mshr_miss_rate::total     0.145455                       # mshr miss rate for SoftPFReq accesses
system.cpu.dcache.SoftPFReq_avg_mshr_miss_latency::.cpu.data       115750                       # average SoftPFReq mshr miss latency
system.cpu.dcache.SoftPFReq_avg_mshr_miss_latency::total       115750                       # average SoftPFReq mshr miss latency
system.cpu.dcache.LoadLockedReq_hits::.cpu.data        10858                       # number of LoadLockedReq hits
system.cpu.dcache.LoadLockedReq_hits::total        10858                       # number of LoadLockedReq hits
system.cpu.dcache.LoadLockedReq_accesses::.cpu.data        10858                       # number of LoadLockedReq accesses(hits+misses)
system.cpu.dcache.LoadLockedReq_accesses::total        10858                       # number of LoadLockedReq accesses(hits+misses)
system.cpu.dcache.StoreCondReq_hits::.cpu.data        10858                       # number of StoreCondReq hits
system.cpu.dcache.StoreCondReq_hits::total        10858                       # number of StoreCondReq hits
system.cpu.dcache.StoreCondReq_accesses::.cpu.data        10858                       # number of StoreCondReq accesses(hits+misses)
system.cpu.dcache.StoreCondReq_accesses::total        10858                       # number of StoreCondReq accesses(hits+misses)
system.cpu.dcache.tags.pwrStateResidencyTicks::UNDEFINED  14734996000                       # Cumulative time (in ticks) in various power states
system.cpu.dcache.tags.tagsinuse           960.230488                       # Cycle average of tags in use
system.cpu.dcache.tags.total_refs             3842108                       # Total number of references to valid blocks.
system.cpu.dcache.tags.sampled_refs              9337                       # Sample count of references to valid blocks.
system.cpu.dcache.tags.avg_refs            411.492771                       # Average number of references to valid blocks.
system.cpu.dcache.tags.warmup_cycle            255000                       # Cycle when the warmup percentage was hit.
system.cpu.dcache.tags.occ_blocks::.cpu.data   960.230488                       # Average occupied blocks per requestor
system.cpu.dcache.tags.occ_percent::.cpu.data     0.937725                       # Average percentage of cache occupancy
system.cpu.dcache.tags.occ_percent::total     0.937725                       # Average percentage of cache occupancy
system.cpu.dcache.tags.occ_task_id_blocks::1024         1024                       # Occupied blocks per task id
system.cpu.dcache.tags.age_task_id_blocks_1024::0            6                       # Occupied blocks per task id
system.cpu.dcache.tags.age_task_id_blocks_1024::1           55                       # Occupied blocks per task id
system.cpu.dcache.tags.age_task_id_blocks_1024::2          484                       # Occupied blocks per task id
system.cpu.dcache.tags.age_task_id_blocks_1024::3          449                       # Occupied blocks per task id
system.cpu.dcache.tags.age_task_id_blocks_1024::4           30                       # Occupied blocks per task id
system.cpu.dcache.tags.occ_task_id_percent::1024            1                       # Percentage of cache occupancy per task id
system.cpu.dcache.tags.tag_accesses           7709189                       # Number of tag accesses
system.cpu.dcache.tags.data_accesses          7709189                       # Number of data accesses
system.cpu.itb.walker.pwrStateResidencyTicks::UNDEFINED  14734996000                       # Cumulative time (in ticks) in various power states
system.cpu.itb.stage2_mmu.stage2_tlb.walker.pwrStateResidencyTicks::UNDEFINED  14734996000                       # Cumulative time (in ticks) in various power states

---------- End Simulation Statistics   ----------
