
---------- Begin Simulation Statistics ----------
final_tick                                63274878000                       # Number of ticks from beginning of simulation (restored from checkpoints and never reset)
host_inst_rate                                 162600                       # Simulator instruction rate (inst/s)
host_mem_usage                                 720912                       # Number of bytes of host memory used
host_op_rate                                   230834                       # Simulator op (including micro ops) rate (op/s)
host_seconds                                    61.50                       # Real time elapsed on the host
host_tick_rate                             1028844699                       # Simulator tick rate (ticks/s)
sim_freq                                 1000000000000                       # Frequency of simulated ticks
sim_insts                                    10000000                       # Number of instructions simulated
sim_ops                                      14196459                       # Number of ops (including micro ops) simulated
sim_seconds                                  0.063275                       # Number of seconds simulated
sim_ticks                                 63274878000                       # Number of ticks simulated
system.cpu.branchPred.BTBCorrect                    0                       # Number of correct BTB predictions (this stat may not work properly.
system.cpu.branchPred.BTBHitPct             99.568044                       # BTB Hit Percentage
system.cpu.branchPred.BTBHits                  561741                       # Number of BTB hits
system.cpu.branchPred.BTBLookups               564178                       # Number of BTB lookups
system.cpu.branchPred.RASInCorrect                  5                       # Number of incorrect RAS predictions.
system.cpu.branchPred.condIncorrect               928                       # Number of conditional branches incorrect
system.cpu.branchPred.condPredicted            560902                       # Number of conditional branches predicted
system.cpu.branchPred.indirectHits                 13                       # Number of indirect target hits.
system.cpu.branchPred.indirectLookups             121                       # Number of indirect predictor lookups.
system.cpu.branchPred.indirectMisses              108                       # Number of indirect misses.
system.cpu.branchPred.lookups                  567625                       # Number of BP lookups
system.cpu.branchPred.usedRAS                    2278                       # Number of times the RAS was used to get a target.
system.cpu.branchPredindirectMispredicted           51                       # Number of mispredicted indirect branches.
system.cpu.committedInsts                    10000000                       # Number of instructions committed
system.cpu.committedOps                      14196459                       # Number of ops (including micro ops) committed
system.cpu.cpi                               6.327488                       # CPI: cycles per instruction
system.cpu.discardedOps                          2831                       # Number of ops (including micro ops) which were discarded before commit
system.cpu.dtb.accesses                             0                       # DTB accesses
system.cpu.dtb.align_faults                         0                       # Number of TLB faults due to alignment restrictions
system.cpu.dtb.domain_faults                        0                       # Number of TLB faults due to domain restrictions
system.cpu.dtb.flush_entries                        0                       # Number of entries that have been flushed from TLB
system.cpu.dtb.flush_tlb                            0                       # Number of times complete TLB was flushed
system.cpu.dtb.flush_tlb_asid                       0                       # Number of times TLB was flushed by ASID
system.cpu.dtb.flush_tlb_mva                        0                       # Number of times TLB was flushed by MVA
system.cpu.dtb.flush_tlb_mva_asid                   0                       # Number of times TLB was flushed by MVA & ASID
system.cpu.dtb.hits                                 0                       # DTB hits
system.cpu.dtb.inst_accesses                        0                       # ITB inst accesses
system.cpu.dtb.inst_hits                            0                       # ITB inst hits
system.cpu.dtb.inst_misses                          0                       # ITB inst misses
system.cpu.dtb.misses                               0                       # DTB misses
system.cpu.dtb.perms_faults                         0                       # Number of TLB faults due to permissions restrictions
system.cpu.dtb.prefetch_faults                      0                       # Number of TLB faults due to prefetch
system.cpu.dtb.read_accesses                        0                       # DTB read accesses
system.cpu.dtb.read_hits                            0                       # DTB read hits
system.cpu.dtb.read_misses                          0                       # DTB read misses
system.cpu.dtb.stage2_mmu.stage2_tlb.accesses            0                       # DTB accesses
system.cpu.dtb.stage2_mmu.stage2_tlb.align_faults            0                       # Number of TLB faults due to alignment restrictions
system.cpu.dtb.stage2_mmu.stage2_tlb.domain_faults            0                       # Number of TLB faults due to domain restrictions
system.cpu.dtb.stage2_mmu.stage2_tlb.flush_entries            0                       # Number of entries that have been flushed from TLB
system.cpu.dtb.stage2_mmu.stage2_tlb.flush_tlb            0                       # Number of times complete TLB was flushed
system.cpu.dtb.stage2_mmu.stage2_tlb.flush_tlb_asid            0                       # Number of times TLB was flushed by ASID
system.cpu.dtb.stage2_mmu.stage2_tlb.flush_tlb_mva            0                       # Number of times TLB was flushed by MVA
system.cpu.dtb.stage2_mmu.stage2_tlb.flush_tlb_mva_asid            0                       # Number of times TLB was flushed by MVA & ASID
system.cpu.dtb.stage2_mmu.stage2_tlb.hits            0                       # DTB hits
system.cpu.dtb.stage2_mmu.stage2_tlb.inst_accesses            0                       # ITB inst accesses
system.cpu.dtb.stage2_mmu.stage2_tlb.inst_hits            0                       # ITB inst hits
system.cpu.dtb.stage2_mmu.stage2_tlb.inst_misses            0                       # ITB inst misses
system.cpu.dtb.stage2_mmu.stage2_tlb.misses            0                       # DTB misses
system.cpu.dtb.stage2_mmu.stage2_tlb.perms_faults            0                       # Number of TLB faults due to permissions restrictions
system.cpu.dtb.stage2_mmu.stage2_tlb.prefetch_faults            0                       # Number of TLB faults due to prefetch
system.cpu.dtb.stage2_mmu.stage2_tlb.read_accesses            0                       # DTB read accesses
system.cpu.dtb.stage2_mmu.stage2_tlb.read_hits            0                       # DTB read hits
system.cpu.dtb.stage2_mmu.stage2_tlb.read_misses            0                       # DTB read misses
system.cpu.dtb.stage2_mmu.stage2_tlb.walker.walkRequestOrigin_Requested::Data            0                       # Table walker requests started/completed, data/inst
system.cpu.dtb.stage2_mmu.stage2_tlb.walker.walkRequestOrigin_Requested::Inst            0                       # Table walker requests started/completed, data/inst
system.cpu.dtb.stage2_mmu.stage2_tlb.walker.walkRequestOrigin_Requested::total            0                       # Table walker requests started/completed, data/inst
system.cpu.dtb.stage2_mmu.stage2_tlb.walker.walkRequestOrigin_Completed::Data            0                       # Table walker requests started/completed, data/inst
system.cpu.dtb.stage2_mmu.stage2_tlb.walker.walkRequestOrigin_Completed::Inst            0                       # Table walker requests started/completed, data/inst
system.cpu.dtb.stage2_mmu.stage2_tlb.walker.walkRequestOrigin_Completed::total            0                       # Table walker requests started/completed, data/inst
system.cpu.dtb.stage2_mmu.stage2_tlb.walker.walkRequestOrigin::total            0                       # Table walker requests started/completed, data/inst
system.cpu.dtb.stage2_mmu.stage2_tlb.walker.walks            0                       # Table walker walks requested
system.cpu.dtb.stage2_mmu.stage2_tlb.write_accesses            0                       # DTB write accesses
system.cpu.dtb.stage2_mmu.stage2_tlb.write_hits            0                       # DTB write hits
system.cpu.dtb.stage2_mmu.stage2_tlb.write_misses            0                       # DTB write misses
system.cpu.dtb.walker.walkRequestOrigin_Requested::Data            0                       # Table walker requests started/completed, data/inst
system.cpu.dtb.walker.walkRequestOrigin_Requested::Inst            0                       # Table walker requests started/completed, data/inst
system.cpu.dtb.walker.walkRequestOrigin_Requested::total            0                       # Table walker requests started/completed, data/inst
system.cpu.dtb.walker.walkRequestOrigin_Completed::Data            0                       # Table walker requests started/completed, data/inst
system.cpu.dtb.walker.walkRequestOrigin_Completed::Inst            0                       # Table walker requests started/completed, data/inst
system.cpu.dtb.walker.walkRequestOrigin_Completed::total            0                       # Table walker requests started/completed, data/inst
system.cpu.dtb.walker.walkRequestOrigin::total            0                       # Table walker requests started/completed, data/inst
system.cpu.dtb.walker.walks                         0                       # Table walker walks requested
system.cpu.dtb.write_accesses                       0                       # DTB write accesses
system.cpu.dtb.write_hits                           0                       # DTB write hits
system.cpu.dtb.write_misses                         0                       # DTB write misses
system.cpu.fetch2.amo_instructions                  0                       # Number of memory atomic instructions successfully decoded
system.cpu.fetch2.fp_instructions                   0                       # Number of floating point instructions successfully decoded
system.cpu.fetch2.int_instructions            4890488                       # Number of integer instructions successfully decoded
system.cpu.fetch2.load_instructions           2075366                       # Number of memory load instructions successfully decoded
system.cpu.fetch2.store_instructions           166658                       # Number of memory store instructions successfully decoded
system.cpu.fetch2.vec_instructions                  0                       # Number of SIMD instructions successfully decoded
system.cpu.idleCycles                        45210320                       # Total number of cycles that the object has spent stopped
system.cpu.ipc                               0.158041                       # IPC: instructions per cycle
system.cpu.itb.accesses                             0                       # DTB accesses
system.cpu.itb.align_faults                         0                       # Number of TLB faults due to alignment restrictions
system.cpu.itb.domain_faults                        0                       # Number of TLB faults due to domain restrictions
system.cpu.itb.flush_entries                        0                       # Number of entries that have been flushed from TLB
system.cpu.itb.flush_tlb                            0                       # Number of times complete TLB was flushed
system.cpu.itb.flush_tlb_asid                       0                       # Number of times TLB was flushed by ASID
system.cpu.itb.flush_tlb_mva                        0                       # Number of times TLB was flushed by MVA
system.cpu.itb.flush_tlb_mva_asid                   0                       # Number of times TLB was flushed by MVA & ASID
system.cpu.itb.hits                                 0                       # DTB hits
system.cpu.itb.inst_accesses                        0                       # ITB inst accesses
system.cpu.itb.inst_hits                            0                       # ITB inst hits
system.cpu.itb.inst_misses                          0                       # ITB inst misses
system.cpu.itb.misses                               0                       # DTB misses
system.cpu.itb.perms_faults                         0                       # Number of TLB faults due to permissions restrictions
system.cpu.itb.prefetch_faults                      0                       # Number of TLB faults due to prefetch
system.cpu.itb.read_accesses                        0                       # DTB read accesses
system.cpu.itb.read_hits                            0                       # DTB read hits
system.cpu.itb.read_misses                          0                       # DTB read misses
system.cpu.itb.stage2_mmu.stage2_tlb.accesses            0                       # DTB accesses
system.cpu.itb.stage2_mmu.stage2_tlb.align_faults            0                       # Number of TLB faults due to alignment restrictions
system.cpu.itb.stage2_mmu.stage2_tlb.domain_faults            0                       # Number of TLB faults due to domain restrictions
system.cpu.itb.stage2_mmu.stage2_tlb.flush_entries            0                       # Number of entries that have been flushed from TLB
system.cpu.itb.stage2_mmu.stage2_tlb.flush_tlb            0                       # Number of times complete TLB was flushed
system.cpu.itb.stage2_mmu.stage2_tlb.flush_tlb_asid            0                       # Number of times TLB was flushed by ASID
system.cpu.itb.stage2_mmu.stage2_tlb.flush_tlb_mva            0                       # Number of times TLB was flushed by MVA
system.cpu.itb.stage2_mmu.stage2_tlb.flush_tlb_mva_asid            0                       # Number of times TLB was flushed by MVA & ASID
system.cpu.itb.stage2_mmu.stage2_tlb.hits            0                       # DTB hits
system.cpu.itb.stage2_mmu.stage2_tlb.inst_accesses            0                       # ITB inst accesses
system.cpu.itb.stage2_mmu.stage2_tlb.inst_hits            0                       # ITB inst hits
system.cpu.itb.stage2_mmu.stage2_tlb.inst_misses            0                       # ITB inst misses
system.cpu.itb.stage2_mmu.stage2_tlb.misses            0                       # DTB misses
system.cpu.itb.stage2_mmu.stage2_tlb.perms_faults            0                       # Number of TLB faults due to permissions restrictions
system.cpu.itb.stage2_mmu.stage2_tlb.prefetch_faults            0                       # Number of TLB faults due to prefetch
system.cpu.itb.stage2_mmu.stage2_tlb.read_accesses            0                       # DTB read accesses
system.cpu.itb.stage2_mmu.stage2_tlb.read_hits            0                       # DTB read hits
system.cpu.itb.stage2_mmu.stage2_tlb.read_misses            0                       # DTB read misses
system.cpu.itb.stage2_mmu.stage2_tlb.walker.walkRequestOrigin_Requested::Data            0                       # Table walker requests started/completed, data/inst
system.cpu.itb.stage2_mmu.stage2_tlb.walker.walkRequestOrigin_Requested::Inst            0                       # Table walker requests started/completed, data/inst
system.cpu.itb.stage2_mmu.stage2_tlb.walker.walkRequestOrigin_Requested::total            0                       # Table walker requests started/completed, data/inst
system.cpu.itb.stage2_mmu.stage2_tlb.walker.walkRequestOrigin_Completed::Data            0                       # Table walker requests started/completed, data/inst
system.cpu.itb.stage2_mmu.stage2_tlb.walker.walkRequestOrigin_Completed::Inst            0                       # Table walker requests started/completed, data/inst
system.cpu.itb.stage2_mmu.stage2_tlb.walker.walkRequestOrigin_Completed::total            0                       # Table walker requests started/completed, data/inst
system.cpu.itb.stage2_mmu.stage2_tlb.walker.walkRequestOrigin::total            0                       # Table walker requests started/completed, data/inst
system.cpu.itb.stage2_mmu.stage2_tlb.walker.walks            0                       # Table walker walks requested
system.cpu.itb.stage2_mmu.stage2_tlb.write_accesses            0                       # DTB write accesses
system.cpu.itb.stage2_mmu.stage2_tlb.write_hits            0                       # DTB write hits
system.cpu.itb.stage2_mmu.stage2_tlb.write_misses            0                       # DTB write misses
system.cpu.itb.walker.walkRequestOrigin_Requested::Data            0                       # Table walker requests started/completed, data/inst
system.cpu.itb.walker.walkRequestOrigin_Requested::Inst            0                       # Table walker requests started/completed, data/inst
system.cpu.itb.walker.walkRequestOrigin_Requested::total            0                       # Table walker requests started/completed, data/inst
system.cpu.itb.walker.walkRequestOrigin_Completed::Data            0                       # Table walker requests started/completed, data/inst
system.cpu.itb.walker.walkRequestOrigin_Completed::Inst            0                       # Table walker requests started/completed, data/inst
system.cpu.itb.walker.walkRequestOrigin_Completed::total            0                       # Table walker requests started/completed, data/inst
system.cpu.itb.walker.walkRequestOrigin::total            0                       # Table walker requests started/completed, data/inst
system.cpu.itb.walker.walks                         0                       # Table walker walks requested
system.cpu.itb.write_accesses                       0                       # DTB write accesses
system.cpu.itb.write_hits                           0                       # DTB write hits
system.cpu.itb.write_misses                         0                       # DTB write misses
system.cpu.numCycles                         63274878                       # number of cpu cycles simulated
system.cpu.numFetchSuspends                         0                       # Number of times Execute suspended instruction fetching
system.cpu.numWorkItemsCompleted                    0                       # number of work items this cpu completed
system.cpu.numWorkItemsStarted                      0                       # number of work items this cpu started
system.cpu.op_class_0::No_OpClass                   0      0.00%      0.00% # Class of committed instruction
system.cpu.op_class_0::IntAlu                 7650229     53.89%     53.89% # Class of committed instruction
system.cpu.op_class_0::IntMult                 114597      0.81%     54.70% # Class of committed instruction
system.cpu.op_class_0::IntDiv                       0      0.00%     54.70% # Class of committed instruction
system.cpu.op_class_0::FloatAdd                     0      0.00%     54.70% # Class of committed instruction
system.cpu.op_class_0::FloatCmp                     0      0.00%     54.70% # Class of committed instruction
system.cpu.op_class_0::FloatCvt                     0      0.00%     54.70% # Class of committed instruction
system.cpu.op_class_0::FloatMult                    0      0.00%     54.70% # Class of committed instruction
system.cpu.op_class_0::FloatMultAcc                 0      0.00%     54.70% # Class of committed instruction
system.cpu.op_class_0::FloatDiv                     0      0.00%     54.70% # Class of committed instruction
system.cpu.op_class_0::FloatMisc                    0      0.00%     54.70% # Class of committed instruction
system.cpu.op_class_0::FloatSqrt                    0      0.00%     54.70% # Class of committed instruction
system.cpu.op_class_0::SimdAdd                      0      0.00%     54.70% # Class of committed instruction
system.cpu.op_class_0::SimdAddAcc                   0      0.00%     54.70% # Class of committed instruction
system.cpu.op_class_0::SimdAlu                      0      0.00%     54.70% # Class of committed instruction
system.cpu.op_class_0::SimdCmp                      0      0.00%     54.70% # Class of committed instruction
system.cpu.op_class_0::SimdCvt                      0      0.00%     54.70% # Class of committed instruction
system.cpu.op_class_0::SimdMisc                     0      0.00%     54.70% # Class of committed instruction
system.cpu.op_class_0::SimdMult                     0      0.00%     54.70% # Class of committed instruction
system.cpu.op_class_0::SimdMultAcc                  0      0.00%     54.70% # Class of committed instruction
system.cpu.op_class_0::SimdShift                    0      0.00%     54.70% # Class of committed instruction
system.cpu.op_class_0::SimdShiftAcc                 0      0.00%     54.70% # Class of committed instruction
system.cpu.op_class_0::SimdDiv                      0      0.00%     54.70% # Class of committed instruction
system.cpu.op_class_0::SimdSqrt                     0      0.00%     54.70% # Class of committed instruction
system.cpu.op_class_0::SimdFloatAdd                 0      0.00%     54.70% # Class of committed instruction
system.cpu.op_class_0::SimdFloatAlu                 0      0.00%     54.70% # Class of committed instruction
system.cpu.op_class_0::SimdFloatCmp                 0      0.00%     54.70% # Class of committed instruction
system.cpu.op_class_0::SimdFloatCvt                 0      0.00%     54.70% # Class of committed instruction
system.cpu.op_class_0::SimdFloatDiv                 0      0.00%     54.70% # Class of committed instruction
system.cpu.op_class_0::SimdFloatMisc               17      0.00%     54.70% # Class of committed instruction
system.cpu.op_class_0::SimdFloatMult                0      0.00%     54.70% # Class of committed instruction
system.cpu.op_class_0::SimdFloatMultAcc             0      0.00%     54.70% # Class of committed instruction
system.cpu.op_class_0::SimdFloatSqrt                0      0.00%     54.70% # Class of committed instruction
system.cpu.op_class_0::SimdReduceAdd                0      0.00%     54.70% # Class of committed instruction
system.cpu.op_class_0::SimdReduceAlu                0      0.00%     54.70% # Class of committed instruction
system.cpu.op_class_0::SimdReduceCmp                0      0.00%     54.70% # Class of committed instruction
system.cpu.op_class_0::SimdFloatReduceAdd            0      0.00%     54.70% # Class of committed instruction
system.cpu.op_class_0::SimdFloatReduceCmp            0      0.00%     54.70% # Class of committed instruction
system.cpu.op_class_0::SimdAes                      0      0.00%     54.70% # Class of committed instruction
system.cpu.op_class_0::SimdAesMix                   0      0.00%     54.70% # Class of committed instruction
system.cpu.op_class_0::SimdSha1Hash                 0      0.00%     54.70% # Class of committed instruction
system.cpu.op_class_0::SimdSha1Hash2                0      0.00%     54.70% # Class of committed instruction
system.cpu.op_class_0::SimdSha256Hash               0      0.00%     54.70% # Class of committed instruction
system.cpu.op_class_0::SimdSha256Hash2              0      0.00%     54.70% # Class of committed instruction
system.cpu.op_class_0::SimdShaSigma2                0      0.00%     54.70% # Class of committed instruction
system.cpu.op_class_0::SimdShaSigma3                0      0.00%     54.70% # Class of committed instruction
system.cpu.op_class_0::SimdPredAlu                  0      0.00%     54.70% # Class of committed instruction
system.cpu.op_class_0::MemRead                2073895     14.61%     69.30% # Class of committed instruction
system.cpu.op_class_0::MemWrite               4357721     30.70%    100.00% # Class of committed instruction
system.cpu.op_class_0::FloatMemRead                 0      0.00%    100.00% # Class of committed instruction
system.cpu.op_class_0::FloatMemWrite                0      0.00%    100.00% # Class of committed instruction
system.cpu.op_class_0::IprAccess                    0      0.00%    100.00% # Class of committed instruction
system.cpu.op_class_0::InstPrefetch                 0      0.00%    100.00% # Class of committed instruction
system.cpu.op_class_0::total                 14196459                       # Class of committed instruction
system.cpu.tickCycles                        18064558                       # Number of cycles that the object actually ticked
system.cpu.workload.numSyscalls                    11                       # Number of system calls
system.membus.snoop_filter.hit_multi_requests            0                       # Number of requests hitting in the snoop filter with multiple (>1) holders of the requested data.
system.membus.snoop_filter.hit_multi_snoops            0                       # Number of snoops hitting in the snoop filter with multiple (>1) holders of the requested data.
system.membus.snoop_filter.hit_single_requests       397866                       # Number of requests hitting in the snoop filter with a single holder of the requested data.
system.membus.snoop_filter.hit_single_snoops            0                       # Number of snoops hitting in the snoop filter with a single holder of the requested data.
system.membus.snoop_filter.tot_requests        927357                       # Total number of requests made to the snoop filter.
system.membus.snoop_filter.tot_snoops               0                       # Total number of snoops made to the snoop filter.
system.tol2bus.snoop_filter.hit_multi_requests           39                       # Number of requests hitting in the snoop filter with multiple (>1) holders of the requested data.
system.tol2bus.snoop_filter.hit_multi_snoops            0                       # Number of snoops hitting in the snoop filter with multiple (>1) holders of the requested data.
system.tol2bus.snoop_filter.hit_single_requests       524926                       # Number of requests hitting in the snoop filter with a single holder of the requested data.
system.tol2bus.snoop_filter.hit_single_snoops          553                       # Number of snoops hitting in the snoop filter with a single holder of the requested data.
system.tol2bus.snoop_filter.tot_requests      1054502                       # Total number of requests made to the snoop filter.
system.tol2bus.snoop_filter.tot_snoops            553                       # Total number of snoops made to the snoop filter.
system.membus.pwrStateResidencyTicks::UNDEFINED  63274878000                       # Cumulative time (in ticks) in various power states
system.membus.trans_dist::ReadResp                848                       # Transaction distribution
system.membus.trans_dist::WritebackDirty       397588                       # Transaction distribution
system.membus.trans_dist::CleanEvict              278                       # Transaction distribution
system.membus.trans_dist::ReadExReq            528643                       # Transaction distribution
system.membus.trans_dist::ReadExResp           528643                       # Transaction distribution
system.membus.trans_dist::ReadSharedReq           848                       # Transaction distribution
system.membus.pkt_count_system.l2.mem_side::system.mem_ctrls.port      1456848                       # Packet count per connected master and slave (bytes)
system.membus.pkt_count::total                1456848                       # Packet count per connected master and slave (bytes)
system.membus.pkt_size_system.l2.mem_side::system.mem_ctrls.port     29666528                       # Cumulative packet size per connected master and slave (bytes)
system.membus.pkt_size::total                29666528                       # Cumulative packet size per connected master and slave (bytes)
system.membus.snoops                                0                       # Total snoops (count)
system.membus.snoopTraffic                          0                       # Total snoop traffic (bytes)
system.membus.snoop_fanout::samples            529491                       # Request fanout histogram
system.membus.snoop_fanout::mean                    0                       # Request fanout histogram
system.membus.snoop_fanout::stdev                   0                       # Request fanout histogram
system.membus.snoop_fanout::underflows              0      0.00%      0.00% # Request fanout histogram
system.membus.snoop_fanout::0                  529491    100.00%    100.00% # Request fanout histogram
system.membus.snoop_fanout::1                       0      0.00%    100.00% # Request fanout histogram
system.membus.snoop_fanout::overflows               0      0.00%    100.00% # Request fanout histogram
system.membus.snoop_fanout::min_value               0                       # Request fanout histogram
system.membus.snoop_fanout::max_value               0                       # Request fanout histogram
system.membus.snoop_fanout::total              529491                       # Request fanout histogram
system.membus.respLayer1.occupancy         1729146000                       # Layer occupancy (ticks)
system.membus.respLayer1.utilization              2.7                       # Layer utilization (%)
system.membus.reqLayer0.occupancy          1722533000                       # Layer occupancy (ticks)
system.membus.reqLayer0.utilization               2.7                       # Layer utilization (%)
system.tol2bus.pwrStateResidencyTicks::UNDEFINED  63274878000                       # Cumulative time (in ticks) in various power states
system.tol2bus.trans_dist::ReadResp               922                       # Transaction distribution
system.tol2bus.trans_dist::WritebackDirty       922171                       # Transaction distribution
system.tol2bus.trans_dist::WritebackClean           97                       # Transaction distribution
system.tol2bus.trans_dist::CleanEvict            1077                       # Transaction distribution
system.tol2bus.trans_dist::ReadExReq           528654                       # Transaction distribution
system.tol2bus.trans_dist::ReadExResp          528653                       # Transaction distribution
system.tol2bus.trans_dist::ReadCleanReq           650                       # Transaction distribution
system.tol2bus.trans_dist::ReadSharedReq          272                       # Transaction distribution
system.tol2bus.pkt_count_system.cpu.icache.mem_side::system.l2.cpu_side         1397                       # Packet count per connected master and slave (bytes)
system.tol2bus.pkt_count_system.cpu.dcache.mem_side::system.l2.cpu_side      1582680                       # Packet count per connected master and slave (bytes)
system.tol2bus.pkt_count::total               1584077                       # Packet count per connected master and slave (bytes)
system.tol2bus.pkt_size_system.cpu.icache.mem_side::system.l2.cpu_side        23904                       # Cumulative packet size per connected master and slave (bytes)
system.tol2bus.pkt_size_system.cpu.dcache.mem_side::system.l2.cpu_side     33712256                       # Cumulative packet size per connected master and slave (bytes)
system.tol2bus.pkt_size::total               33736160                       # Cumulative packet size per connected master and slave (bytes)
system.tol2bus.snoops                          398419                       # Total snoops (count)
system.tol2bus.snoopTraffic                  12722816                       # Total snoop traffic (bytes)
system.tol2bus.snoop_fanout::samples           927995                       # Request fanout histogram
system.tol2bus.snoop_fanout::mean            0.000638                       # Request fanout histogram
system.tol2bus.snoop_fanout::stdev           0.025249                       # Request fanout histogram
system.tol2bus.snoop_fanout::underflows             0      0.00%      0.00% # Request fanout histogram
system.tol2bus.snoop_fanout::0                 927403     99.94%     99.94% # Request fanout histogram
system.tol2bus.snoop_fanout::1                    592      0.06%    100.00% # Request fanout histogram
system.tol2bus.snoop_fanout::2                      0      0.00%    100.00% # Request fanout histogram
system.tol2bus.snoop_fanout::overflows              0      0.00%    100.00% # Request fanout histogram
system.tol2bus.snoop_fanout::min_value              0                       # Request fanout histogram
system.tol2bus.snoop_fanout::max_value              1                       # Request fanout histogram
system.tol2bus.snoop_fanout::total             927995                       # Request fanout histogram
system.tol2bus.reqLayer0.occupancy         1579182000                       # Layer occupancy (ticks)
system.tol2bus.reqLayer0.utilization              2.5                       # Layer utilization (%)
system.tol2bus.respLayer1.occupancy        1057851998                       # Layer occupancy (ticks)
system.tol2bus.respLayer1.utilization             1.7                       # Layer utilization (%)
system.tol2bus.respLayer0.occupancy           1300000                       # Layer occupancy (ticks)
system.tol2bus.respLayer0.utilization             0.0                       # Layer utilization (%)
system.voltage_domain.voltage                       1                       # Voltage in Volts
system.clk_domain.clock                          1000                       # Clock period in ticks
system.l2.pwrStateResidencyTicks::UNDEFINED  63274878000                       # Cumulative time (in ticks) in various power states
system.l2.demand_hits::.cpu.inst                   42                       # number of demand (read+write) hits
system.l2.demand_hits::.cpu.data                   41                       # number of demand (read+write) hits
system.l2.demand_hits::total                       83                       # number of demand (read+write) hits
system.l2.overall_hits::.cpu.inst                  42                       # number of overall hits
system.l2.overall_hits::.cpu.data                  41                       # number of overall hits
system.l2.overall_hits::total                      83                       # number of overall hits
system.l2.demand_misses::.cpu.inst                608                       # number of demand (read+write) misses
system.l2.demand_misses::.cpu.data             528885                       # number of demand (read+write) misses
system.l2.demand_misses::total                 529493                       # number of demand (read+write) misses
system.l2.overall_misses::.cpu.inst               608                       # number of overall misses
system.l2.overall_misses::.cpu.data            528885                       # number of overall misses
system.l2.overall_misses::total                529493                       # number of overall misses
system.l2.demand_miss_latency::.cpu.inst     59136000                       # number of demand (read+write) miss cycles
system.l2.demand_miss_latency::.cpu.data  51008937000                       # number of demand (read+write) miss cycles
system.l2.demand_miss_latency::total      51068073000                       # number of demand (read+write) miss cycles
system.l2.overall_miss_latency::.cpu.inst     59136000                       # number of overall miss cycles
system.l2.overall_miss_latency::.cpu.data  51008937000                       # number of overall miss cycles
system.l2.overall_miss_latency::total     51068073000                       # number of overall miss cycles
system.l2.demand_accesses::.cpu.inst              650                       # number of demand (read+write) accesses
system.l2.demand_accesses::.cpu.data           528926                       # number of demand (read+write) accesses
system.l2.demand_accesses::total               529576                       # number of demand (read+write) accesses
system.l2.overall_accesses::.cpu.inst             650                       # number of overall (read+write) accesses
system.l2.overall_accesses::.cpu.data          528926                       # number of overall (read+write) accesses
system.l2.overall_accesses::total              529576                       # number of overall (read+write) accesses
system.l2.demand_miss_rate::.cpu.inst        0.935385                       # miss rate for demand accesses
system.l2.demand_miss_rate::.cpu.data        0.999922                       # miss rate for demand accesses
system.l2.demand_miss_rate::total            0.999843                       # miss rate for demand accesses
system.l2.overall_miss_rate::.cpu.inst       0.935385                       # miss rate for overall accesses
system.l2.overall_miss_rate::.cpu.data       0.999922                       # miss rate for overall accesses
system.l2.overall_miss_rate::total           0.999843                       # miss rate for overall accesses
system.l2.demand_avg_miss_latency::.cpu.inst 97263.157895                       # average overall miss latency
system.l2.demand_avg_miss_latency::.cpu.data 96446.178281                       # average overall miss latency
system.l2.demand_avg_miss_latency::total 96447.116392                       # average overall miss latency
system.l2.overall_avg_miss_latency::.cpu.inst 97263.157895                       # average overall miss latency
system.l2.overall_avg_miss_latency::.cpu.data 96446.178281                       # average overall miss latency
system.l2.overall_avg_miss_latency::total 96447.116392                       # average overall miss latency
system.l2.blocked_cycles::no_mshrs                  0                       # number of cycles access was blocked
system.l2.blocked_cycles::no_targets                0                       # number of cycles access was blocked
system.l2.blocked::no_mshrs                         0                       # number of cycles access was blocked
system.l2.blocked::no_targets                       0                       # number of cycles access was blocked
system.l2.avg_blocked_cycles::no_mshrs            nan                       # average number of cycles each access was blocked
system.l2.avg_blocked_cycles::no_targets          nan                       # average number of cycles each access was blocked
system.l2.writebacks::.writebacks              397588                       # number of writebacks
system.l2.writebacks::total                    397588                       # number of writebacks
system.l2.demand_mshr_hits::.cpu.data               1                       # number of demand (read+write) MSHR hits
system.l2.demand_mshr_hits::total                   1                       # number of demand (read+write) MSHR hits
system.l2.overall_mshr_hits::.cpu.data              1                       # number of overall MSHR hits
system.l2.overall_mshr_hits::total                  1                       # number of overall MSHR hits
system.l2.demand_mshr_misses::.cpu.inst           608                       # number of demand (read+write) MSHR misses
system.l2.demand_mshr_misses::.cpu.data        528884                       # number of demand (read+write) MSHR misses
system.l2.demand_mshr_misses::total            529492                       # number of demand (read+write) MSHR misses
system.l2.overall_mshr_misses::.cpu.inst          608                       # number of overall MSHR misses
system.l2.overall_mshr_misses::.cpu.data       528884                       # number of overall MSHR misses
system.l2.overall_mshr_misses::total           529492                       # number of overall MSHR misses
system.l2.demand_mshr_miss_latency::.cpu.inst     46976000                       # number of demand (read+write) MSHR miss cycles
system.l2.demand_mshr_miss_latency::.cpu.data  40431187000                       # number of demand (read+write) MSHR miss cycles
system.l2.demand_mshr_miss_latency::total  40478163000                       # number of demand (read+write) MSHR miss cycles
system.l2.overall_mshr_miss_latency::.cpu.inst     46976000                       # number of overall MSHR miss cycles
system.l2.overall_mshr_miss_latency::.cpu.data  40431187000                       # number of overall MSHR miss cycles
system.l2.overall_mshr_miss_latency::total  40478163000                       # number of overall MSHR miss cycles
system.l2.demand_mshr_miss_rate::.cpu.inst     0.935385                       # mshr miss rate for demand accesses
system.l2.demand_mshr_miss_rate::.cpu.data     0.999921                       # mshr miss rate for demand accesses
system.l2.demand_mshr_miss_rate::total       0.999841                       # mshr miss rate for demand accesses
system.l2.overall_mshr_miss_rate::.cpu.inst     0.935385                       # mshr miss rate for overall accesses
system.l2.overall_mshr_miss_rate::.cpu.data     0.999921                       # mshr miss rate for overall accesses
system.l2.overall_mshr_miss_rate::total      0.999841                       # mshr miss rate for overall accesses
system.l2.demand_avg_mshr_miss_latency::.cpu.inst 77263.157895                       # average overall mshr miss latency
system.l2.demand_avg_mshr_miss_latency::.cpu.data 76446.228284                       # average overall mshr miss latency
system.l2.demand_avg_mshr_miss_latency::total 76447.166341                       # average overall mshr miss latency
system.l2.overall_avg_mshr_miss_latency::.cpu.inst 77263.157895                       # average overall mshr miss latency
system.l2.overall_avg_mshr_miss_latency::.cpu.data 76446.228284                       # average overall mshr miss latency
system.l2.overall_avg_mshr_miss_latency::total 76447.166341                       # average overall mshr miss latency
system.l2.replacements                         398419                       # number of replacements
system.l2.WritebackDirty_hits::.writebacks       524583                       # number of WritebackDirty hits
system.l2.WritebackDirty_hits::total           524583                       # number of WritebackDirty hits
system.l2.WritebackDirty_accesses::.writebacks       524583                       # number of WritebackDirty accesses(hits+misses)
system.l2.WritebackDirty_accesses::total       524583                       # number of WritebackDirty accesses(hits+misses)
system.l2.WritebackClean_hits::.writebacks           93                       # number of WritebackClean hits
system.l2.WritebackClean_hits::total               93                       # number of WritebackClean hits
system.l2.WritebackClean_accesses::.writebacks           93                       # number of WritebackClean accesses(hits+misses)
system.l2.WritebackClean_accesses::total           93                       # number of WritebackClean accesses(hits+misses)
system.l2.ReadExReq_hits::.cpu.data                10                       # number of ReadExReq hits
system.l2.ReadExReq_hits::total                    10                       # number of ReadExReq hits
system.l2.ReadExReq_misses::.cpu.data          528644                       # number of ReadExReq misses
system.l2.ReadExReq_misses::total              528644                       # number of ReadExReq misses
system.l2.ReadExReq_miss_latency::.cpu.data  50985020000                       # number of ReadExReq miss cycles
system.l2.ReadExReq_miss_latency::total   50985020000                       # number of ReadExReq miss cycles
system.l2.ReadExReq_accesses::.cpu.data        528654                       # number of ReadExReq accesses(hits+misses)
system.l2.ReadExReq_accesses::total            528654                       # number of ReadExReq accesses(hits+misses)
system.l2.ReadExReq_miss_rate::.cpu.data     0.999981                       # miss rate for ReadExReq accesses
system.l2.ReadExReq_miss_rate::total         0.999981                       # miss rate for ReadExReq accesses
system.l2.ReadExReq_avg_miss_latency::.cpu.data 96444.904321                       # average ReadExReq miss latency
system.l2.ReadExReq_avg_miss_latency::total 96444.904321                       # average ReadExReq miss latency
system.l2.ReadExReq_mshr_misses::.cpu.data       528644                       # number of ReadExReq MSHR misses
system.l2.ReadExReq_mshr_misses::total         528644                       # number of ReadExReq MSHR misses
system.l2.ReadExReq_mshr_miss_latency::.cpu.data  40412160000                       # number of ReadExReq MSHR miss cycles
system.l2.ReadExReq_mshr_miss_latency::total  40412160000                       # number of ReadExReq MSHR miss cycles
system.l2.ReadExReq_mshr_miss_rate::.cpu.data     0.999981                       # mshr miss rate for ReadExReq accesses
system.l2.ReadExReq_mshr_miss_rate::total     0.999981                       # mshr miss rate for ReadExReq accesses
system.l2.ReadExReq_avg_mshr_miss_latency::.cpu.data 76444.942154                       # average ReadExReq mshr miss latency
system.l2.ReadExReq_avg_mshr_miss_latency::total 76444.942154                       # average ReadExReq mshr miss latency
system.l2.ReadCleanReq_hits::.cpu.inst             42                       # number of ReadCleanReq hits
system.l2.ReadCleanReq_hits::total                 42                       # number of ReadCleanReq hits
system.l2.ReadCleanReq_misses::.cpu.inst          608                       # number of ReadCleanReq misses
system.l2.ReadCleanReq_misses::total              608                       # number of ReadCleanReq misses
system.l2.ReadCleanReq_miss_latency::.cpu.inst     59136000                       # number of ReadCleanReq miss cycles
system.l2.ReadCleanReq_miss_latency::total     59136000                       # number of ReadCleanReq miss cycles
system.l2.ReadCleanReq_accesses::.cpu.inst          650                       # number of ReadCleanReq accesses(hits+misses)
system.l2.ReadCleanReq_accesses::total            650                       # number of ReadCleanReq accesses(hits+misses)
system.l2.ReadCleanReq_miss_rate::.cpu.inst     0.935385                       # miss rate for ReadCleanReq accesses
system.l2.ReadCleanReq_miss_rate::total      0.935385                       # miss rate for ReadCleanReq accesses
system.l2.ReadCleanReq_avg_miss_latency::.cpu.inst 97263.157895                       # average ReadCleanReq miss latency
system.l2.ReadCleanReq_avg_miss_latency::total 97263.157895                       # average ReadCleanReq miss latency
system.l2.ReadCleanReq_mshr_misses::.cpu.inst          608                       # number of ReadCleanReq MSHR misses
system.l2.ReadCleanReq_mshr_misses::total          608                       # number of ReadCleanReq MSHR misses
system.l2.ReadCleanReq_mshr_miss_latency::.cpu.inst     46976000                       # number of ReadCleanReq MSHR miss cycles
system.l2.ReadCleanReq_mshr_miss_latency::total     46976000                       # number of ReadCleanReq MSHR miss cycles
system.l2.ReadCleanReq_mshr_miss_rate::.cpu.inst     0.935385                       # mshr miss rate for ReadCleanReq accesses
system.l2.ReadCleanReq_mshr_miss_rate::total     0.935385                       # mshr miss rate for ReadCleanReq accesses
system.l2.ReadCleanReq_avg_mshr_miss_latency::.cpu.inst 77263.157895                       # average ReadCleanReq mshr miss latency
system.l2.ReadCleanReq_avg_mshr_miss_latency::total 77263.157895                       # average ReadCleanReq mshr miss latency
system.l2.ReadSharedReq_hits::.cpu.data            31                       # number of ReadSharedReq hits
system.l2.ReadSharedReq_hits::total                31                       # number of ReadSharedReq hits
system.l2.ReadSharedReq_misses::.cpu.data          241                       # number of ReadSharedReq misses
system.l2.ReadSharedReq_misses::total             241                       # number of ReadSharedReq misses
system.l2.ReadSharedReq_miss_latency::.cpu.data     23917000                       # number of ReadSharedReq miss cycles
system.l2.ReadSharedReq_miss_latency::total     23917000                       # number of ReadSharedReq miss cycles
system.l2.ReadSharedReq_accesses::.cpu.data          272                       # number of ReadSharedReq accesses(hits+misses)
system.l2.ReadSharedReq_accesses::total           272                       # number of ReadSharedReq accesses(hits+misses)
system.l2.ReadSharedReq_miss_rate::.cpu.data     0.886029                       # miss rate for ReadSharedReq accesses
system.l2.ReadSharedReq_miss_rate::total     0.886029                       # miss rate for ReadSharedReq accesses
system.l2.ReadSharedReq_avg_miss_latency::.cpu.data 99240.663900                       # average ReadSharedReq miss latency
system.l2.ReadSharedReq_avg_miss_latency::total 99240.663900                       # average ReadSharedReq miss latency
system.l2.ReadSharedReq_mshr_hits::.cpu.data            1                       # number of ReadSharedReq MSHR hits
system.l2.ReadSharedReq_mshr_hits::total            1                       # number of ReadSharedReq MSHR hits
system.l2.ReadSharedReq_mshr_misses::.cpu.data          240                       # number of ReadSharedReq MSHR misses
system.l2.ReadSharedReq_mshr_misses::total          240                       # number of ReadSharedReq MSHR misses
system.l2.ReadSharedReq_mshr_miss_latency::.cpu.data     19027000                       # number of ReadSharedReq MSHR miss cycles
system.l2.ReadSharedReq_mshr_miss_latency::total     19027000                       # number of ReadSharedReq MSHR miss cycles
system.l2.ReadSharedReq_mshr_miss_rate::.cpu.data     0.882353                       # mshr miss rate for ReadSharedReq accesses
system.l2.ReadSharedReq_mshr_miss_rate::total     0.882353                       # mshr miss rate for ReadSharedReq accesses
system.l2.ReadSharedReq_avg_mshr_miss_latency::.cpu.data 79279.166667                       # average ReadSharedReq mshr miss latency
system.l2.ReadSharedReq_avg_mshr_miss_latency::total 79279.166667                       # average ReadSharedReq mshr miss latency
system.l2.tags.pwrStateResidencyTicks::UNDEFINED  63274878000                       # Cumulative time (in ticks) in various power states
system.l2.tags.tagsinuse                 105593.193472                       # Cycle average of tags in use
system.l2.tags.total_refs                     1054461                       # Total number of references to valid blocks.
system.l2.tags.sampled_refs                    529491                       # Sample count of references to valid blocks.
system.l2.tags.avg_refs                      1.991462                       # Average number of references to valid blocks.
system.l2.tags.warmup_cycle                     87000                       # Cycle when the warmup percentage was hit.
system.l2.tags.occ_blocks::.cpu.inst       177.604014                       # Average occupied blocks per requestor
system.l2.tags.occ_blocks::.cpu.data     105415.589458                       # Average occupied blocks per requestor
system.l2.tags.occ_percent::.cpu.inst        0.001355                       # Average percentage of cache occupancy
system.l2.tags.occ_percent::.cpu.data        0.804257                       # Average percentage of cache occupancy
system.l2.tags.occ_percent::total            0.805612                       # Average percentage of cache occupancy
system.l2.tags.occ_task_id_blocks::1024        131072                       # Occupied blocks per task id
system.l2.tags.age_task_id_blocks_1024::0           92                       # Occupied blocks per task id
system.l2.tags.age_task_id_blocks_1024::1          816                       # Occupied blocks per task id
system.l2.tags.age_task_id_blocks_1024::2         8164                       # Occupied blocks per task id
system.l2.tags.age_task_id_blocks_1024::3        81629                       # Occupied blocks per task id
system.l2.tags.age_task_id_blocks_1024::4        40371                       # Occupied blocks per task id
system.l2.tags.occ_task_id_percent::1024            1                       # Percentage of cache occupancy per task id
system.l2.tags.tag_accesses                   4747343                       # Number of tag accesses
system.l2.tags.data_accesses                  4747343                       # Number of data accesses
system.cpu_voltage_domain.voltage                   1                       # Voltage in Volts
system.mem_ctrls.pwrStateResidencyTicks::UNDEFINED  63274878000                       # Cumulative time (in ticks) in various power states
system.mem_ctrls.bytes_read::.cpu.inst          19456                       # Number of bytes read from this memory
system.mem_ctrls.bytes_read::.cpu.data       16924256                       # Number of bytes read from this memory
system.mem_ctrls.bytes_read::total           16943712                       # Number of bytes read from this memory
system.mem_ctrls.bytes_inst_read::.cpu.inst        19456                       # Number of instructions bytes read from this memory
system.mem_ctrls.bytes_inst_read::total         19456                       # Number of instructions bytes read from this memory
system.mem_ctrls.bytes_written::.writebacks     12722816                       # Number of bytes written to this memory
system.mem_ctrls.bytes_written::total        12722816                       # Number of bytes written to this memory
system.mem_ctrls.num_reads::.cpu.inst             608                       # Number of read requests responded to by this memory
system.mem_ctrls.num_reads::.cpu.data          528883                       # Number of read requests responded to by this memory
system.mem_ctrls.num_reads::total              529491                       # Number of read requests responded to by this memory
system.mem_ctrls.num_writes::.writebacks       397588                       # Number of write requests responded to by this memory
system.mem_ctrls.num_writes::total             397588                       # Number of write requests responded to by this memory
system.mem_ctrls.bw_read::.cpu.inst            307484                       # Total read bandwidth from this memory (bytes/s)
system.mem_ctrls.bw_read::.cpu.data         267471966                       # Total read bandwidth from this memory (bytes/s)
system.mem_ctrls.bw_read::total             267779450                       # Total read bandwidth from this memory (bytes/s)
system.mem_ctrls.bw_inst_read::.cpu.inst       307484                       # Instruction read bandwidth from this memory (bytes/s)
system.mem_ctrls.bw_inst_read::total           307484                       # Instruction read bandwidth from this memory (bytes/s)
system.mem_ctrls.bw_write::.writebacks      201072154                       # Write bandwidth from this memory (bytes/s)
system.mem_ctrls.bw_write::total            201072154                       # Write bandwidth from this memory (bytes/s)
system.mem_ctrls.bw_total::.writebacks      201072154                       # Total bandwidth to/from this memory (bytes/s)
system.mem_ctrls.bw_total::.cpu.inst           307484                       # Total bandwidth to/from this memory (bytes/s)
system.mem_ctrls.bw_total::.cpu.data        267471966                       # Total bandwidth to/from this memory (bytes/s)
system.mem_ctrls.bw_total::total            468851603                       # Total bandwidth to/from this memory (bytes/s)
system.mem_ctrls.avgPriority_.writebacks::samples    198948.00                       # Average QoS priority value for accepted requests
system.mem_ctrls.avgPriority_.cpu.inst::samples       608.00                       # Average QoS priority value for accepted requests
system.mem_ctrls.avgPriority_.cpu.data::samples    528883.00                       # Average QoS priority value for accepted requests
system.mem_ctrls.priorityMinLatency      0.000000018750                       # per QoS priority minimum request to response latency (s)
system.mem_ctrls.priorityMaxLatency      0.006489176500                       # per QoS priority maximum request to response latency (s)
system.mem_ctrls.numReadWriteTurnArounds        12427                       # Number of turnarounds from READ to WRITE
system.mem_ctrls.numWriteReadTurnArounds        12427                       # Number of turnarounds from WRITE to READ
system.mem_ctrls.numStayReadState             1459667                       # Number of times bus staying in READ state
system.mem_ctrls.numStayWriteState             187172                       # Number of times bus staying in WRITE state
system.mem_ctrls.readReqs                      529491                       # Number of read requests accepted
system.mem_ctrls.writeReqs                     397588                       # Number of write requests accepted
system.mem_ctrls.readBursts                    529491                       # Number of DRAM read bursts, including those serviced by the write queue
system.mem_ctrls.writeBursts                   397588                       # Number of DRAM write bursts, including those merged in the write queue
system.mem_ctrls.servicedByWrQ                      0                       # Number of DRAM read bursts serviced by the write queue
system.mem_ctrls.mergedWrBursts                198640                       # Number of DRAM write bursts merged with an existing one
system.mem_ctrls.neitherReadNorWriteReqs            0                       # Number of requests that are neither read nor write
system.mem_ctrls.perBankRdBursts::0             33040                       # Per bank write bursts
system.mem_ctrls.perBankRdBursts::1             33207                       # Per bank write bursts
system.mem_ctrls.perBankRdBursts::2             33168                       # Per bank write bursts
system.mem_ctrls.perBankRdBursts::3             33182                       # Per bank write bursts
system.mem_ctrls.perBankRdBursts::4             33126                       # Per bank write bursts
system.mem_ctrls.perBankRdBursts::5             33184                       # Per bank write bursts
system.mem_ctrls.perBankRdBursts::6             33171                       # Per bank write bursts
system.mem_ctrls.perBankRdBursts::7             33095                       # Per bank write bursts
system.mem_ctrls.perBankRdBursts::8             33037                       # Per bank write bursts
system.mem_ctrls.perBankRdBursts::9             33058                       # Per bank write bursts
system.mem_ctrls.perBankRdBursts::10            33020                       # Per bank write bursts
system.mem_ctrls.perBankRdBursts::11            33057                       # Per bank write bursts
system.mem_ctrls.perBankRdBursts::12            33071                       # Per bank write bursts
system.mem_ctrls.perBankRdBursts::13            32982                       # Per bank write bursts
system.mem_ctrls.perBankRdBursts::14            33167                       # Per bank write bursts
system.mem_ctrls.perBankRdBursts::15            32926                       # Per bank write bursts
system.mem_ctrls.perBankWrBursts::0             12360                       # Per bank write bursts
system.mem_ctrls.perBankWrBursts::1             12495                       # Per bank write bursts
system.mem_ctrls.perBankWrBursts::2             12485                       # Per bank write bursts
system.mem_ctrls.perBankWrBursts::3             12493                       # Per bank write bursts
system.mem_ctrls.perBankWrBursts::4             12473                       # Per bank write bursts
system.mem_ctrls.perBankWrBursts::5             12474                       # Per bank write bursts
system.mem_ctrls.perBankWrBursts::6             12488                       # Per bank write bursts
system.mem_ctrls.perBankWrBursts::7             12456                       # Per bank write bursts
system.mem_ctrls.perBankWrBursts::8             12416                       # Per bank write bursts
system.mem_ctrls.perBankWrBursts::9             12416                       # Per bank write bursts
system.mem_ctrls.perBankWrBursts::10            12331                       # Per bank write bursts
system.mem_ctrls.perBankWrBursts::11            12425                       # Per bank write bursts
system.mem_ctrls.perBankWrBursts::12            12433                       # Per bank write bursts
system.mem_ctrls.perBankWrBursts::13            12373                       # Per bank write bursts
system.mem_ctrls.perBankWrBursts::14            12438                       # Per bank write bursts
system.mem_ctrls.perBankWrBursts::15            12360                       # Per bank write bursts
system.mem_ctrls.avgRdQLen                       1.00                       # Average read queue length when enqueuing
system.mem_ctrls.avgWrQLen                      18.77                       # Average write queue length when enqueuing
system.mem_ctrls.totQLat                   3405492750                       # Total ticks spent queuing
system.mem_ctrls.totBusLat                 2647455000                       # Total ticks spent in databus transfers
system.mem_ctrls.totMemAccLat             13333449000                       # Total ticks spent from burst creation until serviced by the DRAM
system.mem_ctrls.avgQLat                      6431.63                       # Average queueing delay per DRAM burst
system.mem_ctrls.avgBusLat                    5000.00                       # Average bus latency per DRAM burst
system.mem_ctrls.avgMemAccLat                25181.63                       # Average memory access latency per DRAM burst
system.mem_ctrls.numRdRetry                         0                       # Number of times read queue was full causing retry
system.mem_ctrls.numWrRetry                         0                       # Number of times write queue was full causing retry
system.mem_ctrls.readRowHits                   486026                       # Number of row buffer hits during reads
system.mem_ctrls.writeRowHits                  184535                       # Number of row buffer hits during writes
system.mem_ctrls.readRowHitRate                 91.79                       # Row buffer hit rate for reads
system.mem_ctrls.writeRowHitRate                92.76                       # Row buffer hit rate for writes
system.mem_ctrls.readPktSize::0                     0                       # Read request sizes (log2)
system.mem_ctrls.readPktSize::1                     0                       # Read request sizes (log2)
system.mem_ctrls.readPktSize::2                     0                       # Read request sizes (log2)
system.mem_ctrls.readPktSize::3                     0                       # Read request sizes (log2)
system.mem_ctrls.readPktSize::4                     0                       # Read request sizes (log2)
system.mem_ctrls.readPktSize::5                529491                       # Read request sizes (log2)
system.mem_ctrls.readPktSize::6                     0                       # Read request sizes (log2)
system.mem_ctrls.writePktSize::0                    0                       # Write request sizes (log2)
system.mem_ctrls.writePktSize::1                    0                       # Write request sizes (log2)
system.mem_ctrls.writePktSize::2                    0                       # Write request sizes (log2)
system.mem_ctrls.writePktSize::3                    0                       # Write request sizes (log2)
system.mem_ctrls.writePktSize::4                    0                       # Write request sizes (log2)
system.mem_ctrls.writePktSize::5               397588                       # Write request sizes (log2)
system.mem_ctrls.writePktSize::6                    0                       # Write request sizes (log2)
system.mem_ctrls.rdQLenPdf::0                  529214                       # What read queue length does an incoming req see
system.mem_ctrls.rdQLenPdf::1                     254                       # What read queue length does an incoming req see
system.mem_ctrls.rdQLenPdf::2                      22                       # What read queue length does an incoming req see
system.mem_ctrls.rdQLenPdf::3                       1                       # What read queue length does an incoming req see
system.mem_ctrls.rdQLenPdf::4                       0                       # What read queue length does an incoming req see
system.mem_ctrls.rdQLenPdf::5                       0                       # What read queue length does an incoming req see
system.mem_ctrls.rdQLenPdf::6                       0                       # What read queue length does an incoming req see
system.mem_ctrls.rdQLenPdf::7                       0                       # What read queue length does an incoming req see
system.mem_ctrls.rdQLenPdf::8                       0                       # What read queue length does an incoming req see
system.mem_ctrls.rdQLenPdf::9                       0                       # What read queue length does an incoming req see
system.mem_ctrls.rdQLenPdf::10                      0                       # What read queue length does an incoming req see
system.mem_ctrls.rdQLenPdf::11                      0                       # What read queue length does an incoming req see
system.mem_ctrls.rdQLenPdf::12                      0                       # What read queue length does an incoming req see
system.mem_ctrls.rdQLenPdf::13                      0                       # What read queue length does an incoming req see
system.mem_ctrls.rdQLenPdf::14                      0                       # What read queue length does an incoming req see
system.mem_ctrls.rdQLenPdf::15                      0                       # What read queue length does an incoming req see
system.mem_ctrls.rdQLenPdf::16                      0                       # What read queue length does an incoming req see
system.mem_ctrls.rdQLenPdf::17                      0                       # What read queue length does an incoming req see
system.mem_ctrls.rdQLenPdf::18                      0                       # What read queue length does an incoming req see
system.mem_ctrls.rdQLenPdf::19                      0                       # What read queue length does an incoming req see
system.mem_ctrls.rdQLenPdf::20                      0                       # What read queue length does an incoming req see
system.mem_ctrls.rdQLenPdf::21                      0                       # What read queue length does an incoming req see
system.mem_ctrls.rdQLenPdf::22                      0                       # What read queue length does an incoming req see
system.mem_ctrls.rdQLenPdf::23                      0                       # What read queue length does an incoming req see
system.mem_ctrls.rdQLenPdf::24                      0                       # What read queue length does an incoming req see
system.mem_ctrls.rdQLenPdf::25                      0                       # What read queue length does an incoming req see
system.mem_ctrls.rdQLenPdf::26                      0                       # What read queue length does an incoming req see
system.mem_ctrls.rdQLenPdf::27                      0                       # What read queue length does an incoming req see
system.mem_ctrls.rdQLenPdf::28                      0                       # What read queue length does an incoming req see
system.mem_ctrls.rdQLenPdf::29                      0                       # What read queue length does an incoming req see
system.mem_ctrls.rdQLenPdf::30                      0                       # What read queue length does an incoming req see
system.mem_ctrls.rdQLenPdf::31                      0                       # What read queue length does an incoming req see
system.mem_ctrls.wrQLenPdf::0                       1                       # What write queue length does an incoming req see
system.mem_ctrls.wrQLenPdf::1                       1                       # What write queue length does an incoming req see
system.mem_ctrls.wrQLenPdf::2                       1                       # What write queue length does an incoming req see
system.mem_ctrls.wrQLenPdf::3                       1                       # What write queue length does an incoming req see
system.mem_ctrls.wrQLenPdf::4                       1                       # What write queue length does an incoming req see
system.mem_ctrls.wrQLenPdf::5                       1                       # What write queue length does an incoming req see
system.mem_ctrls.wrQLenPdf::6                       1                       # What write queue length does an incoming req see
system.mem_ctrls.wrQLenPdf::7                       1                       # What write queue length does an incoming req see
system.mem_ctrls.wrQLenPdf::8                       1                       # What write queue length does an incoming req see
system.mem_ctrls.wrQLenPdf::9                       1                       # What write queue length does an incoming req see
system.mem_ctrls.wrQLenPdf::10                      1                       # What write queue length does an incoming req see
system.mem_ctrls.wrQLenPdf::11                      1                       # What write queue length does an incoming req see
system.mem_ctrls.wrQLenPdf::12                      1                       # What write queue length does an incoming req see
system.mem_ctrls.wrQLenPdf::13                      1                       # What write queue length does an incoming req see
system.mem_ctrls.wrQLenPdf::14                      1                       # What write queue length does an incoming req see
system.mem_ctrls.wrQLenPdf::15                     43                       # What write queue length does an incoming req see
system.mem_ctrls.wrQLenPdf::16                     43                       # What write queue length does an incoming req see
system.mem_ctrls.wrQLenPdf::17                  12428                       # What write queue length does an incoming req see
system.mem_ctrls.wrQLenPdf::18                  12428                       # What write queue length does an incoming req see
system.mem_ctrls.wrQLenPdf::19                  12428                       # What write queue length does an incoming req see
system.mem_ctrls.wrQLenPdf::20                  12428                       # What write queue length does an incoming req see
system.mem_ctrls.wrQLenPdf::21                  12428                       # What write queue length does an incoming req see
system.mem_ctrls.wrQLenPdf::22                  12428                       # What write queue length does an incoming req see
system.mem_ctrls.wrQLenPdf::23                  12428                       # What write queue length does an incoming req see
system.mem_ctrls.wrQLenPdf::24                  12428                       # What write queue length does an incoming req see
system.mem_ctrls.wrQLenPdf::25                  12428                       # What write queue length does an incoming req see
system.mem_ctrls.wrQLenPdf::26                  12428                       # What write queue length does an incoming req see
system.mem_ctrls.wrQLenPdf::27                  12428                       # What write queue length does an incoming req see
system.mem_ctrls.wrQLenPdf::28                  12428                       # What write queue length does an incoming req see
system.mem_ctrls.wrQLenPdf::29                  12428                       # What write queue length does an incoming req see
system.mem_ctrls.wrQLenPdf::30                  12428                       # What write queue length does an incoming req see
system.mem_ctrls.wrQLenPdf::31                  12428                       # What write queue length does an incoming req see
system.mem_ctrls.wrQLenPdf::32                  12427                       # What write queue length does an incoming req see
system.mem_ctrls.wrQLenPdf::33                      0                       # What write queue length does an incoming req see
system.mem_ctrls.wrQLenPdf::34                      0                       # What write queue length does an incoming req see
system.mem_ctrls.wrQLenPdf::35                      0                       # What write queue length does an incoming req see
system.mem_ctrls.wrQLenPdf::36                      0                       # What write queue length does an incoming req see
system.mem_ctrls.wrQLenPdf::37                      0                       # What write queue length does an incoming req see
system.mem_ctrls.wrQLenPdf::38                      0                       # What write queue length does an incoming req see
system.mem_ctrls.wrQLenPdf::39                      0                       # What write queue length does an incoming req see
system.mem_ctrls.wrQLenPdf::40                      0                       # What write queue length does an incoming req see
system.mem_ctrls.wrQLenPdf::41                      0                       # What write queue length does an incoming req see
system.mem_ctrls.wrQLenPdf::42                      0                       # What write queue length does an incoming req see
system.mem_ctrls.wrQLenPdf::43                      0                       # What write queue length does an incoming req see
system.mem_ctrls.wrQLenPdf::44                      0                       # What write queue length does an incoming req see
system.mem_ctrls.wrQLenPdf::45                      0                       # What write queue length does an incoming req see
system.mem_ctrls.wrQLenPdf::46                      0                       # What write queue length does an incoming req see
system.mem_ctrls.wrQLenPdf::47                      0                       # What write queue length does an incoming req see
system.mem_ctrls.wrQLenPdf::48                      0                       # What write queue length does an incoming req see
system.mem_ctrls.wrQLenPdf::49                      0                       # What write queue length does an incoming req see
system.mem_ctrls.wrQLenPdf::50                      0                       # What write queue length does an incoming req see
system.mem_ctrls.wrQLenPdf::51                      0                       # What write queue length does an incoming req see
system.mem_ctrls.wrQLenPdf::52                      0                       # What write queue length does an incoming req see
system.mem_ctrls.wrQLenPdf::53                      0                       # What write queue length does an incoming req see
system.mem_ctrls.wrQLenPdf::54                      0                       # What write queue length does an incoming req see
system.mem_ctrls.wrQLenPdf::55                      0                       # What write queue length does an incoming req see
system.mem_ctrls.wrQLenPdf::56                      0                       # What write queue length does an incoming req see
system.mem_ctrls.wrQLenPdf::57                      0                       # What write queue length does an incoming req see
system.mem_ctrls.wrQLenPdf::58                      0                       # What write queue length does an incoming req see
system.mem_ctrls.wrQLenPdf::59                      0                       # What write queue length does an incoming req see
system.mem_ctrls.wrQLenPdf::60                      0                       # What write queue length does an incoming req see
system.mem_ctrls.wrQLenPdf::61                      0                       # What write queue length does an incoming req see
system.mem_ctrls.wrQLenPdf::62                      0                       # What write queue length does an incoming req see
system.mem_ctrls.wrQLenPdf::63                      0                       # What write queue length does an incoming req see
system.mem_ctrls.bytesPerActivate::samples        57845                       # Bytes accessed per row activation
system.mem_ctrls.bytesPerActivate::mean    805.896586                       # Bytes accessed per row activation
system.mem_ctrls.bytesPerActivate::gmean   660.020392                       # Bytes accessed per row activation
system.mem_ctrls.bytesPerActivate::stdev   331.017550                       # Bytes accessed per row activation
system.mem_ctrls.bytesPerActivate::0-127         4503      7.78%      7.78% # Bytes accessed per row activation
system.mem_ctrls.bytesPerActivate::128-255         1590      2.75%     10.53% # Bytes accessed per row activation
system.mem_ctrls.bytesPerActivate::256-383         3236      5.59%     16.13% # Bytes accessed per row activation
system.mem_ctrls.bytesPerActivate::384-511         1977      3.42%     19.55% # Bytes accessed per row activation
system.mem_ctrls.bytesPerActivate::512-639         4003      6.92%     26.47% # Bytes accessed per row activation
system.mem_ctrls.bytesPerActivate::640-767         2819      4.87%     31.34% # Bytes accessed per row activation
system.mem_ctrls.bytesPerActivate::768-895         1764      3.05%     34.39% # Bytes accessed per row activation
system.mem_ctrls.bytesPerActivate::896-1023         1499      2.59%     36.98% # Bytes accessed per row activation
system.mem_ctrls.bytesPerActivate::1024-1151        36454     63.02%    100.00% # Bytes accessed per row activation
system.mem_ctrls.bytesPerActivate::total        57845                       # Bytes accessed per row activation
system.mem_ctrls.rdPerTurnAround::samples        12427                       # Reads before turning the bus around for writes
system.mem_ctrls.rdPerTurnAround::mean      42.605617                       # Reads before turning the bus around for writes
system.mem_ctrls.rdPerTurnAround::gmean     32.192051                       # Reads before turning the bus around for writes
system.mem_ctrls.rdPerTurnAround::stdev    985.676877                       # Reads before turning the bus around for writes
system.mem_ctrls.rdPerTurnAround::0-4095        12424     99.98%     99.98% # Reads before turning the bus around for writes
system.mem_ctrls.rdPerTurnAround::4096-8191            2      0.02%     99.99% # Reads before turning the bus around for writes
system.mem_ctrls.rdPerTurnAround::106496-110591            1      0.01%    100.00% # Reads before turning the bus around for writes
system.mem_ctrls.rdPerTurnAround::total         12427                       # Reads before turning the bus around for writes
system.mem_ctrls.wrPerTurnAround::samples        12427                       # Writes before turning the bus around for reads
system.mem_ctrls.wrPerTurnAround::mean      16.006759                       # Writes before turning the bus around for reads
system.mem_ctrls.wrPerTurnAround::gmean     16.006370                       # Writes before turning the bus around for reads
system.mem_ctrls.wrPerTurnAround::stdev      0.116079                       # Writes before turning the bus around for reads
system.mem_ctrls.wrPerTurnAround::16            12385     99.66%     99.66% # Writes before turning the bus around for reads
system.mem_ctrls.wrPerTurnAround::18               42      0.34%    100.00% # Writes before turning the bus around for reads
system.mem_ctrls.wrPerTurnAround::total         12427                       # Writes before turning the bus around for reads
[...]
system.cpu.icache.tags.occ_blocks::.cpu.inst   545.364396                       # Average occupied blocks per requestor
system.cpu.icache.tags.occ_percent::.cpu.inst     0.532582                       # Average percentage of cache occupancy
system.cpu.icache.tags.occ_percent::total     0.532582                       # Average percentage of cache occupancy
system.cpu.icache.tags.occ_task_id_blocks::1024          553                       # Occupied blocks per task id
system.cpu.icache.tags.age_task_id_blocks_1024::4          553                       # Occupied blocks per task id
system.cpu.icache.tags.occ_task_id_percent::1024     0.540039                       # Percentage of cache occupancy per task id
system.cpu.icache.tags.tag_accesses           5188214                       # Number of tag accesses
system.cpu.icache.tags.data_accesses          5188214                       # Number of data accesses
system.cpu.dtb.walker.pwrStateResidencyTicks::UNDEFINED  63274878000                       # Cumulative time (in ticks) in various power states
system.cpu.dtb.stage2_mmu.stage2_tlb.walker.pwrStateResidencyTicks::UNDEFINED  63274878000                       # Cumulative time (in ticks) in various power states
system.cpu.dcache.pwrStateResidencyTicks::UNDEFINED  63274878000                       # Cumulative time (in ticks) in various power states
system.cpu.dcache.demand_hits::.cpu.data      5340172                       # number of demand (read+write) hits
system.cpu.dcache.demand_hits::total          5340172                       # number of demand (read+write) hits
system.cpu.dcache.overall_hits::.cpu.data      5340199                       # number of overall hits
system.cpu.dcache.overall_hits::total         5340199                       # number of overall hits
system.cpu.dcache.demand_misses::.cpu.data      1052689                       # number of demand (read+write) misses
system.cpu.dcache.demand_misses::total        1052689                       # number of demand (read+write) misses
system.cpu.dcache.overall_misses::.cpu.data      1052719                       # number of overall misses
system.cpu.dcache.overall_misses::total       1052719                       # number of overall misses
system.cpu.dcache.demand_miss_latency::.cpu.data 106732249000                       # number of demand (read+write) miss cycles
system.cpu.dcache.demand_miss_latency::total 106732249000                       # number of demand (read+write) miss cycles
system.cpu.dcache.overall_miss_latency::.cpu.data 106732249000                       # number of overall miss cycles
system.cpu.dcache.overall_miss_latency::total 106732249000                       # number of overall miss cycles
system.cpu.dcache.demand_accesses::.cpu.data      6392861                       # number of demand (read+write) accesses
system.cpu.dcache.demand_accesses::total      6392861                       # number of demand (read+write) accesses
system.cpu.dcache.overall_accesses::.cpu.data      6392918                       # number of overall (read+write) accesses
system.cpu.dcache.overall_accesses::total      6392918                       # number of overall (read+write) accesses
system.cpu.dcache.demand_miss_rate::.cpu.data     0.164666                       # miss rate for demand accesses
system.cpu.dcache.demand_miss_rate::total     0.164666                       # miss rate for demand accesses
system.cpu.dcache.overall_miss_rate::.cpu.data     0.164670                       # miss rate for overall accesses
system.cpu.dcache.overall_miss_rate::total     0.164670                       # miss rate for overall accesses
system.cpu.dcache.demand_avg_miss_latency::.cpu.data 101390.105720                       # average overall miss latency
system.cpu.dcache.demand_avg_miss_latency::total 101390.105720                       # average overall miss latency
system.cpu.dcache.overall_avg_miss_latency::.cpu.data 101387.216342                       # average overall miss latency
system.cpu.dcache.overall_avg_miss_latency::total 101387.216342                       # average overall miss latency
system.cpu.dcache.blocked_cycles::no_mshrs            0                       # number of cycles access was blocked
system.cpu.dcache.blocked_cycles::no_targets            0                       # number of cycles access was blocked
system.cpu.dcache.blocked::no_mshrs                 0                       # number of cycles access was blocked
system.cpu.dcache.blocked::no_targets               0                       # number of cycles access was blocked
system.cpu.dcache.avg_blocked_cycles::no_mshrs          nan                       # average number of cycles each access was blocked
system.cpu.dcache.avg_blocked_cycles::no_targets          nan                       # average number of cycles each access was blocked
system.cpu.dcache.writebacks::.writebacks       524583                       # number of writebacks
system.cpu.dcache.writebacks::total            524583                       # number of writebacks
system.cpu.dcache.demand_mshr_hits::.cpu.data       523794                       # number of demand (read+write) MSHR hits
system.cpu.dcache.demand_mshr_hits::total       523794                       # number of demand (read+write) MSHR hits
system.cpu.dcache.overall_mshr_hits::.cpu.data       523794                       # number of overall MSHR hits
system.cpu.dcache.overall_mshr_hits::total       523794                       # number of overall MSHR hits
system.cpu.dcache.demand_mshr_misses::.cpu.data       528895                       # number of demand (read+write) MSHR misses
system.cpu.dcache.demand_mshr_misses::total       528895                       # number of demand (read+write) MSHR misses
system.cpu.dcache.overall_mshr_misses::.cpu.data       528925                       # number of overall MSHR misses
system.cpu.dcache.overall_mshr_misses::total       528925                       # number of overall MSHR misses
system.cpu.dcache.demand_mshr_miss_latency::.cpu.data  52593464000                       # number of demand (read+write) MSHR miss cycles
system.cpu.dcache.demand_mshr_miss_latency::total  52593464000                       # number of demand (read+write) MSHR miss cycles
system.cpu.dcache.overall_mshr_miss_latency::.cpu.data  52596498000                       # number of overall MSHR miss cycles
system.cpu.dcache.overall_mshr_miss_latency::total  52596498000                       # number of overall MSHR miss cycles
system.cpu.dcache.demand_mshr_miss_rate::.cpu.data     0.082732                       # mshr miss rate for demand accesses
system.cpu.dcache.demand_mshr_miss_rate::total     0.082732                       # mshr miss rate for demand accesses
system.cpu.dcache.overall_mshr_miss_rate::.cpu.data     0.082736                       # mshr miss rate for overall accesses
system.cpu.dcache.overall_mshr_miss_rate::total     0.082736                       # mshr miss rate for overall accesses
system.cpu.dcache.demand_avg_mshr_miss_latency::.cpu.data 99440.274535                       # average overall mshr miss latency
system.cpu.dcache.demand_avg_mshr_miss_latency::total 99440.274535                       # average overall mshr miss latency
system.cpu.dcache.overall_avg_mshr_miss_latency::.cpu.data 99440.370563                       # average overall mshr miss latency
system.cpu.dcache.overall_avg_mshr_miss_latency::total 99440.370563                       # average overall mshr miss latency
system.cpu.dcache.replacements                 524829                       # number of replacements
system.cpu.dcache.ReadReq_hits::.cpu.data      2034965                       # number of ReadReq hits
system.cpu.dcache.ReadReq_hits::total         2034965                       # number of ReadReq hits
system.cpu.dcache.ReadReq_misses::.cpu.data          251                       # number of ReadReq misses
system.cpu.dcache.ReadReq_misses::total           251                       # number of ReadReq misses
system.cpu.dcache.ReadReq_miss_latency::.cpu.data     23689000                       # number of ReadReq miss cycles
system.cpu.dcache.ReadReq_miss_latency::total     23689000                       # number of ReadReq miss cycles
system.cpu.dcache.ReadReq_accesses::.cpu.data      2035216                       # number of ReadReq accesses(hits+misses)
system.cpu.dcache.ReadReq_accesses::total      2035216                       # number of ReadReq accesses(hits+misses)
system.cpu.dcache.ReadReq_miss_rate::.cpu.data     0.000123                       # miss rate for ReadReq accesses
system.cpu.dcache.ReadReq_miss_rate::total     0.000123                       # miss rate for ReadReq accesses
system.cpu.dcache.ReadReq_avg_miss_latency::.cpu.data 94378.486056                       # average ReadReq miss latency
system.cpu.dcache.ReadReq_avg_miss_latency::total 94378.486056                       # average ReadReq miss latency
system.cpu.dcache.ReadReq_mshr_hits::.cpu.data           10                       # number of ReadReq MSHR hits
system.cpu.dcache.ReadReq_mshr_hits::total           10                       # number of ReadReq MSHR hits
system.cpu.dcache.ReadReq_mshr_misses::.cpu.data          241                       # number of ReadReq MSHR misses
system.cpu.dcache.ReadReq_mshr_misses::total          241                       # number of ReadReq MSHR misses
system.cpu.dcache.ReadReq_mshr_miss_latency::.cpu.data     22273000                       # number of ReadReq MSHR miss cycles
system.cpu.dcache.ReadReq_mshr_miss_latency::total     22273000                       # number of ReadReq MSHR miss cycles
system.cpu.dcache.ReadReq_mshr_miss_rate::.cpu.data     0.000118                       # mshr miss rate for ReadReq accesses
system.cpu.dcache.ReadReq_mshr_miss_rate::total     0.000118                       # mshr miss rate for ReadReq accesses
system.cpu.dcache.ReadReq_avg_mshr_miss_latency::.cpu.data 92419.087137                       # average ReadReq mshr miss latency
system.cpu.dcache.ReadReq_avg_mshr_miss_latency::total 92419.087137                       # average ReadReq mshr miss latency
system.cpu.dcache.WriteReq_hits::.cpu.data      3305207                       # number of WriteReq hits
system.cpu.dcache.WriteReq_hits::total        3305207                       # number of WriteReq hits
system.cpu.dcache.WriteReq_misses::.cpu.data      1052438                       # number of WriteReq misses
system.cpu.dcache.WriteReq_misses::total      1052438                       # number of WriteReq misses
system.cpu.dcache.WriteReq_miss_latency::.cpu.data 106708560000                       # number of WriteReq miss cycles
system.cpu.dcache.WriteReq_miss_latency::total 106708560000                       # number of WriteReq miss cycles
system.cpu.dcache.WriteReq_accesses::.cpu.data      4357645                       # number of WriteReq accesses(hits+misses)
system.cpu.dcache.WriteReq_accesses::total      4357645                       # number of WriteReq accesses(hits+misses)
system.cpu.dcache.WriteReq_miss_rate::.cpu.data     0.241515                       # miss rate for WriteReq accesses
system.cpu.dcache.WriteReq_miss_rate::total     0.241515                       # miss rate for WriteReq accesses
system.cpu.dcache.WriteReq_avg_miss_latency::.cpu.data 101391.777948                       # average WriteReq miss latency
system.cpu.dcache.WriteReq_avg_miss_latency::total 101391.777948                       # average WriteReq miss latency
system.cpu.dcache.WriteReq_mshr_hits::.cpu.data       523784                       # number of WriteReq MSHR hits
system.cpu.dcache.WriteReq_mshr_hits::total       523784                       # number of WriteReq MSHR hits
system.cpu.dcache.WriteReq_mshr_misses::.cpu.data       528654                       # number of WriteReq MSHR misses
system.cpu.dcache.WriteReq_mshr_misses::total       528654                       # number of WriteReq MSHR misses
system.cpu.dcache.WriteReq_mshr_miss_latency::.cpu.data  52571191000                       # number of WriteReq MSHR miss cycles
system.cpu.dcache.WriteReq_mshr_miss_latency::total  52571191000                       # number of WriteReq MSHR miss cycles
system.cpu.dcache.WriteReq_mshr_miss_rate::.cpu.data     0.121316                       # mshr miss rate for WriteReq accesses
system.cpu.dcache.WriteReq_mshr_miss_rate::total     0.121316                       # mshr miss rate for WriteReq accesses
system.cpu.dcache.WriteReq_avg_mshr_miss_latency::.cpu.data 99443.475317                       # average WriteReq mshr miss latency
system.cpu.dcache.WriteReq_avg_mshr_miss_latency::total 99443.475317                       # average WriteReq mshr miss latency
system.cpu.dcache.SoftPFReq_hits::.cpu.data           27                       # number of SoftPFReq hits
system.cpu.dcache.SoftPFReq_hits::total            27                       # number of SoftPFReq hits
system.cpu.dcache.SoftPFReq_misses::.cpu.data           30                       # number of SoftPFReq misses
system.cpu.dcache.SoftPFReq_misses::total           30                       # number of SoftPFReq misses
system.cpu.dcache.SoftPFReq_accesses::.cpu.data           57                       # number of SoftPFReq accesses(hits+misses)
system.cpu.dcache.SoftPFReq_accesses::total           57                       # number of SoftPFReq accesses(hits+misses)
system.cpu.dcache.SoftPFReq_miss_rate::.cpu.data     0.526316                       # miss rate for SoftPFReq accesses
system.cpu.dcache.SoftPFReq_miss_rate::total     0.526316                       # miss rate for SoftPFReq accesses
system.cpu.dcache.SoftPFReq_mshr_misses::.cpu.data           30                       # number of SoftPFReq MSHR misses
system.cpu.dcache.SoftPFReq_mshr_misses::total           30                       # number of SoftPFReq MSHR misses
system.cpu.dcache.SoftPFReq_mshr_miss_latency::.cpu.data      3034000                       # number of SoftPFReq MSHR miss cycles
system.cpu.dcache.SoftPFReq_mshr_miss_latency::total      3034000                       # number of SoftPFReq MSHR miss cycles
system.cpu.dcache.SoftPFReq_mshr_miss_rate::.cpu.data     0.526316                       # mshr miss rate for SoftPFReq accesses
system.cpu.dcache.SoftPFReq_mshr_miss_rate::total     0.526316                       # mshr miss rate for SoftPFReq accesses
system.cpu.dcache.SoftPFReq_avg_mshr_miss_latency::.cpu.data 101133.333333                       # average SoftPFReq mshr miss latency
system.cpu.dcache.SoftPFReq_avg_mshr_miss_latency::total 101133.333333                       # average SoftPFReq mshr miss latency
system.cpu.dcache.LoadLockedReq_hits::.cpu.data           19                       # number of LoadLockedReq hits
system.cpu.dcache.LoadLockedReq_hits::total           19                       # number of LoadLockedReq hits
system.cpu.dcache.LoadLockedReq_misses::.cpu.data            1                       # number of LoadLockedReq misses
system.cpu.dcache.LoadLockedReq_misses::total            1                       # number of LoadLockedReq misses
system.cpu.dcache.LoadLockedReq_miss_latency::.cpu.data       109000                       # number of LoadLockedReq miss cycles
system.cpu.dcache.LoadLockedReq_miss_latency::total       109000                       # number of LoadLockedReq miss cycles
system.cpu.dcache.LoadLockedReq_accesses::.cpu.data           20                       # number of LoadLockedReq accesses(hits+misses)
system.cpu.dcache.LoadLockedReq_accesses::total           20                       # number of LoadLockedReq accesses(hits+misses)
system.cpu.dcache.LoadLockedReq_miss_rate::.cpu.data     0.050000                       # miss rate for LoadLockedReq accesses
system.cpu.dcache.LoadLockedReq_miss_rate::total     0.050000                       # miss rate for LoadLockedReq accesses
system.cpu.dcache.LoadLockedReq_avg_miss_latency::.cpu.data       109000                       # average LoadLockedReq miss latency
system.cpu.dcache.LoadLockedReq_avg_miss_latency::total       109000                       # average LoadLockedReq miss latency
system.cpu.dcache.LoadLockedReq_mshr_misses::.cpu.data            1                       # number of LoadLockedReq MSHR misses
system.cpu.dcache.LoadLockedReq_mshr_misses::total            1                       # number of LoadLockedReq MSHR misses
system.cpu.dcache.LoadLockedReq_mshr_miss_latency::.cpu.data       107000                       # number of LoadLockedReq MSHR miss cycles
system.cpu.dcache.LoadLockedReq_mshr_miss_latency::total       107000                       # number of LoadLockedReq MSHR miss cycles
system.cpu.dcache.LoadLockedReq_mshr_miss_rate::.cpu.data     0.050000                       # mshr miss rate for LoadLockedReq accesses
system.cpu.dcache.LoadLockedReq_mshr_miss_rate::total     0.050000                       # mshr miss rate for LoadLockedReq accesses
system.cpu.dcache.LoadLockedReq_avg_mshr_miss_latency::.cpu.data       107000                       # average LoadLockedReq mshr miss latency
system.cpu.dcache.LoadLockedReq_avg_mshr_miss_latency::total       107000                       # average LoadLockedReq mshr miss latency
system.cpu.dcache.StoreCondReq_hits::.cpu.data           20                       # number of StoreCondReq hits
system.cpu.dcache.StoreCondReq_hits::total           20                       # number of StoreCondReq hits
system.cpu.dcache.StoreCondReq_accesses::.cpu.data           20                       # number of StoreCondReq accesses(hits+misses)
system.cpu.dcache.StoreCondReq_accesses::total           20                       # number of StoreCondReq accesses(hits+misses)
system.cpu.dcache.tags.pwrStateResidencyTicks::UNDEFINED  63274878000                       # Cumulative time (in ticks) in various power states
system.cpu.dcache.tags.tagsinuse          3973.549620                       # Cycle average of tags in use
system.cpu.dcache.tags.total_refs             5869163                       # Total number of references to valid blocks.
system.cpu.dcache.tags.sampled_refs            528925                       # Sample count of references to valid blocks.
system.cpu.dcache.tags.avg_refs             11.096399                       # Average number of references to valid blocks.
system.cpu.dcache.tags.warmup_cycle            223000                       # Cycle when the warmup percentage was hit.
system.cpu.dcache.tags.occ_blocks::.cpu.data  3973.549620                       # Average occupied blocks per requestor
system.cpu.dcache.tags.occ_percent::.cpu.data     0.970105                       # Average percentage of cache occupancy
system.cpu.dcache.tags.occ_percent::total     0.970105                       # Average percentage of cache occupancy
system.cpu.dcache.tags.occ_task_id_blocks::1024         4096                       # Occupied blocks per task id
system.cpu.dcache.tags.age_task_id_blocks_1024::0           93                       # Occupied blocks per task id
system.cpu.dcache.tags.age_task_id_blocks_1024::1          816                       # Occupied blocks per task id
system.cpu.dcache.tags.age_task_id_blocks_1024::2         3187                       # Occupied blocks per task id
system.cpu.dcache.tags.occ_task_id_percent::1024            1                       # Percentage of cache occupancy per task id
system.cpu.dcache.tags.tag_accesses          13314841                       # Number of tag accesses
system.cpu.dcache.tags.data_accesses         13314841                       # Number of data accesses
system.cpu.itb.walker.pwrStateResidencyTicks::UNDEFINED  63274878000                       # Cumulative time (in ticks) in various power states
system.cpu.itb.stage2_mmu.stage2_tlb.walker.pwrStateResidencyTicks::UNDEFINED  63274878000                       # Cumulative time (in ticks) in various power states

---------- End Simulation Statistics   ----------
