
---------- Begin Simulation Statistics ----------
final_tick                                22874042000                       # Number of ticks from beginning of simulation (restored from checkpoints and never reset)
host_inst_rate                                 219349                       # Simulator instruction rate (inst/s)
host_mem_usage                                 693688                       # Number of bytes of host memory used
host_op_rate                                   219968                       # Simulator op (including micro ops) rate (op/s)
host_seconds                                    45.59                       # Real time elapsed on the host
host_tick_rate                              501733637                       # Simulator tick rate (ticks/s)
sim_freq                                 1000000000000                       # Frequency of simulated ticks
sim_insts                                    10000000                       # Number of instructions simulated
sim_ops                                      10028311                       # Number of ops (including micro ops) simulated
sim_seconds                                  0.022874                       # Number of seconds simulated
sim_ticks                                 22874042000                       # Number of ticks simulated
system.cpu.branchPred.BTBCorrect                    0                       # Number of correct BTB predictions (this stat may not work properly.
system.cpu.branchPred.BTBHitPct             98.735817                       # BTB Hit Percentage
system.cpu.branchPred.BTBHits                  300304                       # Number of BTB hits
system.cpu.branchPred.BTBLookups               304149                       # Number of BTB lookups
system.cpu.branchPred.RASInCorrect                  5                       # Number of incorrect RAS predictions.
system.cpu.branchPred.condIncorrect              7165                       # Number of conditional branches incorrect
system.cpu.branchPred.condPredicted            603905                       # Number of conditional branches predicted
system.cpu.branchPred.indirectHits                129                       # Number of indirect target hits.
system.cpu.branchPred.indirectLookups             423                       # Number of indirect predictor lookups.
system.cpu.branchPred.indirectMisses              294                       # Number of indirect misses.
system.cpu.branchPred.lookups                  716878                       # Number of BP lookups
system.cpu.branchPred.usedRAS                    6957                       # Number of times the RAS was used to get a target.
system.cpu.branchPredindirectMispredicted          168                       # Number of mispredicted indirect branches.
system.cpu.committedInsts                    10000000                       # Number of instructions committed
system.cpu.committedOps                      10028311                       # Number of ops (including micro ops) committed
system.cpu.cpi                               2.287404                       # CPI: cycles per instruction
system.cpu.discardedOps                         15377                       # Number of ops (including micro ops) which were discarded before commit
system.cpu.dtb.accesses                             0                       # DTB accesses
system.cpu.dtb.align_faults                         0                       # Number of TLB faults due to alignment restrictions
system.cpu.dtb.domain_faults                        0                       # Number of TLB faults due to domain restrictions
system.cpu.dtb.flush_entries                        0                       # Number of entries that have been flushed from TLB
system.cpu.dtb.flush_tlb                            0                       # Number of times complete TLB was flushed
system.cpu.dtb.flush_tlb_asid                       0                       # Number of times TLB was flushed by ASID
system.cpu.dtb.flush_tlb_mva                        0                       # Number of times TLB was flushed by MVA
system.cpu.dtb.flush_tlb_mva_asid                   0                       # Number of times TLB was flushed by MVA & ASID
system.cpu.dtb.hits                                 0                       # DTB hits
system.cpu.dtb.inst_accesses                        0                       # ITB inst accesses
system.cpu.dtb.inst_hits                            0                       # ITB inst hits
system.cpu.dtb.inst_misses                          0                       # ITB inst misses
system.cpu.dtb.misses                               0                       # DTB misses
system.cpu.dtb.perms_faults                         0                       # Number of TLB faults due to permissions restrictions
system.cpu.dtb.prefetch_faults                      0                       # Number of TLB faults due to prefetch
system.cpu.dtb.read_accesses                        0                       # DTB read accesses
system.cpu.dtb.read_hits                            0                       # DTB read hits
system.cpu.dtb.read_misses                          0                       # DTB read misses
system.cpu.dtb.stage2_mmu.stage2_tlb.accesses            0                       # DTB accesses
system.cpu.dtb.stage2_mmu.stage2_tlb.align_faults            0                       # Number of TLB faults due to alignment restrictions
system.cpu.dtb.stage2_mmu.stage2_tlb.domain_faults            0                       # Number of TLB faults due to domain restrictions
system.cpu.dtb.stage2_mmu.stage2_tlb.flush_entries            0                       # Number of entries that have been flushed from TLB
system.cpu.dtb.stage2_mmu.stage2_tlb.flush_tlb            0                       # Number of times complete TLB was flushed
system.cpu.dtb.stage2_mmu.stage2_tlb.flush_tlb_asid            0                       # Number of times TLB was flushed by ASID
system.cpu.dtb.stage2_mmu.stage2_tlb.flush_tlb_mva            0                       # Number of times TLB was flushed by MVA
system.cpu.dtb.stage2_mmu.stage2_tlb.flush_tlb_mva_asid            0                       # Number of times TLB was flushed by MVA & ASID
system.cpu.dtb.stage2_mmu.stage2_tlb.hits            0                       # DTB hits
system.cpu.dtb.stage2_mmu.stage2_tlb.inst_accesses            0                       # ITB inst accesses
system.cpu.dtb.stage2_mmu.stage2_tlb.inst_hits            0                       # ITB inst hits
system.cpu.dtb.stage2_mmu.stage2_tlb.inst_misses            0                       # ITB inst misses
system.cpu.dtb.stage2_mmu.stage2_tlb.misses            0                       # DTB misses
system.cpu.dtb.stage2_mmu.stage2_tlb.perms_faults            0                       # Number of TLB faults due to permissions restrictions
system.cpu.dtb.stage2_mmu.stage2_tlb.prefetch_faults            0                       # Number of TLB faults due to prefetch
system.cpu.dtb.stage2_mmu.stage2_tlb.read_accesses            0                       # DTB read accesses
system.cpu.dtb.stage2_mmu.stage2_tlb.read_hits            0                       # DTB read hits
system.cpu.dtb.stage2_mmu.stage2_tlb.read_misses            0                       # DTB read misses
system.cpu.dtb.stage2_mmu.stage2_tlb.walker.walkRequestOrigin_Requested::Data            0                       # Table walker requests started/completed, data/inst
system.cpu.dtb.stage2_mmu.stage2_tlb.walker.walkRequestOrigin_Requested::Inst            0                       # Table walker requests started/completed, data/inst
system.cpu.dtb.stage2_mmu.stage2_tlb.walker.walkRequestOrigin_Requested::total            0                       # Table walker requests started/completed, data/inst
system.cpu.dtb.stage2_mmu.stage2_tlb.walker.walkRequestOrigin_Completed::Data            0                       # Table walker requests started/completed, data/inst
system.cpu.dtb.stage2_mmu.stage2_tlb.walker.walkRequestOrigin_Completed::Inst            0                       # Table walker requests started/completed, data/inst
system.cpu.dtb.stage2_mmu.stage2_tlb.walker.walkRequestOrigin_Completed::total            0                       # Table walker requests started/completed, data/inst
system.cpu.dtb.stage2_mmu.stage2_tlb.walker.walkRequestOrigin::total            0                       # Table walker requests started/completed, data/inst
system.cpu.dtb.stage2_mmu.stage2_tlb.walker.walks            0                       # Table walker walks requested
system.cpu.dtb.stage2_mmu.stage2_tlb.write_accesses            0                       # DTB write accesses
system.cpu.dtb.stage2_mmu.stage2_tlb.write_hits            0                       # DTB write hits
system.cpu.dtb.stage2_mmu.stage2_tlb.write_misses            0                       # DTB write misses
system.cpu.dtb.walker.walkRequestOrigin_Requested::Data            0                       # Table walker requests started/completed, data/inst
system.cpu.dtb.walker.walkRequestOrigin_Requested::Inst            0                       # Table walker requests started/completed, data/inst
system.cpu.dtb.walker.walkRequestOrigin_Requested::total            0                       # Table walker requests started/completed, data/inst
system.cpu.dtb.walker.walkRequestOrigin_Completed::Data            0                       # Table walker requests started/completed, data/inst
system.cpu.dtb.walker.walkRequestOrigin_Completed::Inst            0                       # Table walker requests started/completed, data/inst
system.cpu.dtb.walker.walkRequestOrigin_Completed::total            0                       # Table walker requests started/completed, data/inst
system.cpu.dtb.walker.walkRequestOrigin::total            0                       # Table walker requests started/completed, data/inst
system.cpu.dtb.walker.walks                         0                       # Table walker walks requested
system.cpu.dtb.write_accesses                       0                       # DTB write accesses
system.cpu.dtb.write_hits                           0                       # DTB write hits
system.cpu.dtb.write_misses                         0                       # DTB write misses
system.cpu.fetch2.amo_instructions                  0                       # Number of memory atomic instructions successfully decoded
system.cpu.fetch2.fp_instructions                   0                       # Number of floating point instructions successfully decoded
system.cpu.fetch2.int_instructions            2169584                       # Number of integer instructions successfully decoded
system.cpu.fetch2.load_instructions           5801192                       # Number of memory load instructions successfully decoded
system.cpu.fetch2.store_instructions          1454444                       # Number of memory store instructions successfully decoded
system.cpu.fetch2.vec_instructions                  0                       # Number of SIMD instructions successfully decoded
system.cpu.idleCycles                         8387210                       # Total number of cycles that the object has spent stopped
system.cpu.ipc                               0.437177                       # IPC: instructions per cycle
system.cpu.itb.accesses                             0                       # DTB accesses
system.cpu.itb.align_faults                         0                       # Number of TLB faults due to alignment restrictions
system.cpu.itb.domain_faults                        0                       # Number of TLB faults due to domain restrictions
system.cpu.itb.flush_entries                        0                       # Number of entries that have been flushed from TLB
system.cpu.itb.flush_tlb                            0                       # Number of times complete TLB was flushed
system.cpu.itb.flush_tlb_asid                       0                       # Number of times TLB was flushed by ASID
system.cpu.itb.flush_tlb_mva                        0                       # Number of times TLB was flushed by MVA
system.cpu.itb.flush_tlb_mva_asid                   0                       # Number of times TLB was flushed by MVA & ASID
system.cpu.itb.hits                                 0                       # DTB hits
system.cpu.itb.inst_accesses                        0                       # ITB inst accesses
system.cpu.itb.inst_hits                            0                       # ITB inst hits
system.cpu.itb.inst_misses                          0                       # ITB inst misses
system.cpu.itb.misses                               0                       # DTB misses
system.cpu.itb.perms_faults                         0                       # Number of TLB faults due to permissions restrictions
system.cpu.itb.prefetch_faults                      0                       # Number of TLB faults due to prefetch
system.cpu.itb.read_accesses                        0                       # DTB read accesses
system.cpu.itb.read_hits                            0                       # DTB read hits
system.cpu.itb.read_misses                          0                       # DTB read misses
system.cpu.itb.stage2_mmu.stage2_tlb.accesses            0                       # DTB accesses
system.cpu.itb.stage2_mmu.stage2_tlb.align_faults            0                       # Number of TLB faults due to alignment restrictions
system.cpu.itb.stage2_mmu.stage2_tlb.domain_faults            0                       # Number of TLB faults due to domain restrictions
system.cpu.itb.stage2_mmu.stage2_tlb.flush_entries            0                       # Number of entries that have been flushed from TLB
system.cpu.itb.stage2_mmu.stage2_tlb.flush_tlb            0                       # Number of times complete TLB was flushed
system.cpu.itb.stage2_mmu.stage2_tlb.flush_tlb_asid            0                       # Number of times TLB was flushed by ASID
system.cpu.itb.stage2_mmu.stage2_tlb.flush_tlb_mva            0                       # Number of times TLB was flushed by MVA
system.cpu.itb.stage2_mmu.stage2_tlb.flush_tlb_mva_asid            0                       # Number of times TLB was flushed by MVA & ASID
system.cpu.itb.stage2_mmu.stage2_tlb.hits            0                       # DTB hits
system.cpu.itb.stage2_mmu.stage2_tlb.inst_accesses            0                       # ITB inst accesses
system.cpu.itb.stage2_mmu.stage2_tlb.inst_hits            0                       # ITB inst hits
system.cpu.itb.stage2_mmu.stage2_tlb.inst_misses            0                       # ITB inst misses
system.cpu.itb.stage2_mmu.stage2_tlb.misses            0                       # DTB misses
system.cpu.itb.stage2_mmu.stage2_tlb.perms_faults            0                       # Number of TLB faults due to permissions restrictions
system.cpu.itb.stage2_mmu.stage2_tlb.prefetch_faults            0                       # Number of TLB faults due to prefetch
system.cpu.itb.stage2_mmu.stage2_tlb.read_accesses            0                       # DTB read accesses
system.cpu.itb.stage2_mmu.stage2_tlb.read_hits            0                       # DTB read hits
system.cpu.itb.stage2_mmu.stage2_tlb.read_misses            0                       # DTB read misses
system.cpu.itb.stage2_mmu.stage2_tlb.walker.walkRequestOrigin_Requested::Data            0                       # Table walker requests started/completed, data/inst
system.cpu.itb.stage2_mmu.stage2_tlb.walker.walkRequestOrigin_Requested::Inst            0                       # Table walker requests started/completed, data/inst
system.cpu.itb.stage2_mmu.stage2_tlb.walker.walkRequestOrigin_Requested::total            0                       # Table walker requests started/completed, data/inst
system.cpu.itb.stage2_mmu.stage2_tlb.walker.walkRequestOrigin_Completed::Data            0                       # Table walker requests started/completed, data/inst
system.cpu.itb.stage2_mmu.stage2_tlb.walker.walkRequestOrigin_Completed::Inst            0                       # Table walker requests started/completed, data/inst
system.cpu.itb.stage2_mmu.stage2_tlb.walker.walkRequestOrigin_Completed::total            0                       # Table walker requests started/completed, data/inst
system.cpu.itb.stage2_mmu.stage2_tlb.walker.walkRequestOrigin::total            0                       # Table walker requests started/completed, data/inst
system.cpu.itb.stage2_mmu.stage2_tlb.walker.walks            0                       # Table walker walks requested
system.cpu.itb.stage2_mmu.stage2_tlb.write_accesses            0                       # DTB write accesses
system.cpu.itb.stage2_mmu.stage2_tlb.write_hits            0                       # DTB write hits
system.cpu.itb.stage2_mmu.stage2_tlb.write_misses            0                       # DTB write misses
system.cpu.itb.walker.walkRequestOrigin_Requested::Data            0                       # Table walker requests started/completed, data/inst
system.cpu.itb.walker.walkRequestOrigin_Requested::Inst            0                       # Table walker requests started/completed, data/inst
system.cpu.itb.walker.walkRequestOrigin_Requested::total            0                       # Table walker requests started/completed, data/inst
system.cpu.itb.walker.walkRequestOrigin_Completed::Data            0                       # Table walker requests started/completed, data/inst
system.cpu.itb.walker.walkRequestOrigin_Completed::Inst            0                       # Table walker requests started/completed, data/inst
system.cpu.itb.walker.walkRequestOrigin_Completed::total            0                       # Table walker requests started/completed, data/inst
system.cpu.itb.walker.walkRequestOrigin::total            0                       # Table walker requests started/completed, data/inst
system.cpu.itb.walker.walks                         0                       # Table walker walks requested
system.cpu.itb.write_accesses                       0                       # DTB write accesses
system.cpu.itb.write_hits                           0                       # DTB write hits
system.cpu.itb.write_misses                         0                       # DTB write misses
system.cpu.numCycles                         22874042                       # number of cpu cycles simulated
system.cpu.numFetchSuspends                         0                       # Number of times Execute suspended instruction fetching
system.cpu.numWorkItemsCompleted                    0                       # number of work items this cpu completed
system.cpu.numWorkItemsStarted                      0                       # number of work items this cpu started
system.cpu.op_class_0::No_OpClass                   0      0.00%      0.00% # Class of committed instruction
system.cpu.op_class_0::IntAlu                 2830172     28.22%     28.22% # Class of committed instruction
system.cpu.op_class_0::IntMult                  20549      0.20%     28.43% # Class of committed instruction
system.cpu.op_class_0::IntDiv                       0      0.00%     28.43% # Class of committed instruction
system.cpu.op_class_0::FloatAdd                     0      0.00%     28.43% # Class of committed instruction
system.cpu.op_class_0::FloatCmp                     0      0.00%     28.43% # Class of committed instruction
system.cpu.op_class_0::FloatCvt                     0      0.00%     28.43% # Class of committed instruction
system.cpu.op_class_0::FloatMult                    0      0.00%     28.43% # Class of committed instruction
system.cpu.op_class_0::FloatMultAcc                 0      0.00%     28.43% # Class of committed instruction
system.cpu.op_class_0::FloatDiv                     0      0.00%     28.43% # Class of committed instruction
system.cpu.op_class_0::FloatMisc                    0      0.00%     28.43% # Class of committed instruction
system.cpu.op_class_0::FloatSqrt                    0      0.00%     28.43% # Class of committed instruction
system.cpu.op_class_0::SimdAdd                      0      0.00%     28.43% # Class of committed instruction
system.cpu.op_class_0::SimdAddAcc                   0      0.00%     28.43% # Class of committed instruction
system.cpu.op_class_0::SimdAlu                      0      0.00%     28.43% # Class of committed instruction
system.cpu.op_class_0::SimdCmp                      0      0.00%     28.43% # Class of committed instruction
system.cpu.op_class_0::SimdCvt                      0      0.00%     28.43% # Class of committed instruction
system.cpu.op_class_0::SimdMisc                     0      0.00%     28.43% # Class of committed instruction
system.cpu.op_class_0::SimdMult                     0      0.00%     28.43% # Class of committed instruction
system.cpu.op_class_0::SimdMultAcc                  0      0.00%     28.43% # Class of committed instruction
system.cpu.op_class_0::SimdShift                    0      0.00%     28.43% # Class of committed instruction
system.cpu.op_class_0::SimdShiftAcc                 0      0.00%     28.43% # Class of committed instruction
system.cpu.op_class_0::SimdDiv                      0      0.00%     28.43% # Class of committed instruction
system.cpu.op_class_0::SimdSqrt                     0      0.00%     28.43% # Class of committed instruction
system.cpu.op_class_0::SimdFloatAdd                 0      0.00%     28.43% # Class of committed instruction
system.cpu.op_class_0::SimdFloatAlu                 0      0.00%     28.43% # Class of committed instruction
system.cpu.op_class_0::SimdFloatCmp                 0      0.00%     28.43% # Class of committed instruction
system.cpu.op_class_0::SimdFloatCvt                 0      0.00%     28.43% # Class of committed instruction
system.cpu.op_class_0::SimdFloatDiv                 0      0.00%     28.43% # Class of committed instruction
system.cpu.op_class_0::SimdFloatMisc               18      0.00%     28.43% # Class of committed instruction
system.cpu.op_class_0::SimdFloatMult                0      0.00%     28.43% # Class of committed instruction
system.cpu.op_class_0::SimdFloatMultAcc             0      0.00%     28.43% # Class of committed instruction
system.cpu.op_class_0::SimdFloatSqrt                0      0.00%     28.43% # Class of committed instruction
system.cpu.op_class_0::SimdReduceAdd                0      0.00%     28.43% # Class of committed instruction
system.cpu.op_class_0::SimdReduceAlu                0      0.00%     28.43% # Class of committed instruction
system.cpu.op_class_0::SimdReduceCmp                0      0.00%     28.43% # Class of committed instruction
system.cpu.op_class_0::SimdFloatReduceAdd            0      0.00%     28.43% # Class of committed instruction
system.cpu.op_class_0::SimdFloatReduceCmp            0      0.00%     28.43% # Class of committed instruction
system.cpu.op_class_0::SimdAes                      0      0.00%     28.43% # Class of committed instruction
system.cpu.op_class_0::SimdAesMix                   0      0.00%     28.43% # Class of committed instruction
system.cpu.op_class_0::SimdSha1Hash                 0      0.00%     28.43% # Class of committed instruction
system.cpu.op_class_0::SimdSha1Hash2                0      0.00%     28.43% # Class of committed instruction
system.cpu.op_class_0::SimdSha256Hash               0      0.00%     28.43% # Class of committed instruction
system.cpu.op_class_0::SimdSha256Hash2              0      0.00%     28.43% # Class of committed instruction
system.cpu.op_class_0::SimdShaSigma2                0      0.00%     28.43% # Class of committed instruction
system.cpu.op_class_0::SimdShaSigma3                0      0.00%     28.43% # Class of committed instruction
system.cpu.op_class_0::SimdPredAlu                  0      0.00%     28.43% # Class of committed instruction
system.cpu.op_class_0::MemRead                5721878     57.06%     85.48% # Class of committed instruction
system.cpu.op_class_0::MemWrite               1455694     14.52%    100.00% # Class of committed instruction
system.cpu.op_class_0::FloatMemRead                 0      0.00%    100.00% # Class of committed instruction
system.cpu.op_class_0::FloatMemWrite                0      0.00%    100.00% # Class of committed instruction
system.cpu.op_class_0::IprAccess                    0      0.00%    100.00% # Class of committed instruction
system.cpu.op_class_0::InstPrefetch                 0      0.00%    100.00% # Class of committed instruction
system.cpu.op_class_0::total                 10028311                       # Class of committed instruction
system.cpu.tickCycles                        14486832                       # Number of cycles that the object actually ticked
system.cpu.workload.numSyscalls                    84                       # Number of system calls
system.membus.snoop_filter.hit_multi_requests            0                       # Number of requests hitting in the snoop filter with multiple (>1) holders of the requested data.
system.membus.snoop_filter.hit_multi_snoops            0                       # Number of snoops hitting in the snoop filter with multiple (>1) holders of the requested data.
system.membus.snoop_filter.hit_single_requests        45199                       # Number of requests hitting in the snoop filter with a single holder of the requested data.
system.membus.snoop_filter.hit_single_snoops            0                       # Number of snoops hitting in the snoop filter with a single holder of the requested data.
system.membus.snoop_filter.tot_requests        123278                       # Total number of requests made to the snoop filter.
system.membus.snoop_filter.tot_snoops               0                       # Total number of snoops made to the snoop filter.
system.tol2bus.snoop_filter.hit_multi_requests           41                       # Number of requests hitting in the snoop filter with multiple (>1) holders of the requested data.
system.tol2bus.snoop_filter.hit_multi_snoops            0                       # Number of snoops hitting in the snoop filter with multiple (>1) holders of the requested data.
system.tol2bus.snoop_filter.hit_single_requests        79749                       # Number of requests hitting in the snoop filter with a single holder of the requested data.
system.tol2bus.snoop_filter.hit_single_snoops          196                       # Number of snoops hitting in the snoop filter with a single holder of the requested data.
system.tol2bus.snoop_filter.tot_requests       160708                       # Total number of requests made to the snoop filter.
system.tol2bus.snoop_filter.tot_snoops            196                       # Total number of snoops made to the snoop filter.
system.membus.pwrStateResidencyTicks::UNDEFINED  22874042000                       # Cumulative time (in ticks) in various power states
system.membus.trans_dist::ReadResp              27592                       # Transaction distribution
system.membus.trans_dist::WritebackDirty        38088                       # Transaction distribution
system.membus.trans_dist::CleanEvict             7103                       # Transaction distribution
system.membus.trans_dist::ReadExReq             50495                       # Transaction distribution
system.membus.trans_dist::ReadExResp            50495                       # Transaction distribution
system.membus.trans_dist::ReadSharedReq         27592                       # Transaction distribution
system.membus.pkt_count_system.l2.mem_side::system.mem_ctrls.port       201365                       # Packet count per connected master and slave (bytes)
system.membus.pkt_count::total                 201365                       # Packet count per connected master and slave (bytes)
system.membus.pkt_size_system.l2.mem_side::system.mem_ctrls.port     14870400                       # Cumulative packet size per connected master and slave (bytes)
system.membus.pkt_size::total                14870400                       # Cumulative packet size per connected master and slave (bytes)
system.membus.snoops                                0                       # Total snoops (count)
system.membus.snoopTraffic                          0                       # Total snoop traffic (bytes)
system.membus.snoop_fanout::samples             78087                       # Request fanout histogram
system.membus.snoop_fanout::mean                    0                       # Request fanout histogram
system.membus.snoop_fanout::stdev                   0                       # Request fanout histogram
system.membus.snoop_fanout::underflows              0      0.00%      0.00% # Request fanout histogram
system.membus.snoop_fanout::0                   78087    100.00%    100.00% # Request fanout histogram
system.membus.snoop_fanout::1                       0      0.00%    100.00% # Request fanout histogram
system.membus.snoop_fanout::overflows               0      0.00%    100.00% # Request fanout histogram
system.membus.snoop_fanout::min_value               0                       # Request fanout histogram
system.membus.snoop_fanout::max_value               0                       # Request fanout histogram
system.membus.snoop_fanout::total               78087                       # Request fanout histogram
system.membus.respLayer1.occupancy          725036500                       # Layer occupancy (ticks)
system.membus.respLayer1.utilization              3.2                       # Layer utilization (%)
system.membus.reqLayer0.occupancy           427982000                       # Layer occupancy (ticks)
system.membus.reqLayer0.utilization               1.9                       # Layer utilization (%)
system.tol2bus.pwrStateResidencyTicks::UNDEFINED  22874042000                       # Cumulative time (in ticks) in various power states
system.tol2bus.trans_dist::ReadResp             30466                       # Transaction distribution
system.tol2bus.trans_dist::WritebackDirty        88694                       # Transaction distribution
system.tol2bus.trans_dist::WritebackClean          266                       # Transaction distribution
system.tol2bus.trans_dist::CleanEvict           36168                       # Transaction distribution
system.tol2bus.trans_dist::ReadExReq            50501                       # Transaction distribution
system.tol2bus.trans_dist::ReadExResp           50501                       # Transaction distribution
system.tol2bus.trans_dist::ReadCleanReq           468                       # Transaction distribution
system.tol2bus.trans_dist::ReadSharedReq        29998                       # Transaction distribution
system.tol2bus.pkt_count_system.cpu.icache.mem_side::system.l2.cpu_side         1202                       # Packet count per connected master and slave (bytes)
system.tol2bus.pkt_count_system.cpu.dcache.mem_side::system.l2.cpu_side       240473                       # Packet count per connected master and slave (bytes)
system.tol2bus.pkt_count::total                241675                       # Packet count per connected master and slave (bytes)
system.tol2bus.pkt_size_system.cpu.icache.mem_side::system.l2.cpu_side        93952                       # Cumulative packet size per connected master and slave (bytes)
system.tol2bus.pkt_size_system.cpu.dcache.mem_side::system.l2.cpu_side     16781440                       # Cumulative packet size per connected master and slave (bytes)
system.tol2bus.pkt_size::total               16875392                       # Cumulative packet size per connected master and slave (bytes)
system.tol2bus.snoops                           45387                       # Total snoops (count)
system.tol2bus.snoopTraffic                   4875264                       # Total snoop traffic (bytes)
system.tol2bus.snoop_fanout::samples           126354                       # Request fanout histogram
system.tol2bus.snoop_fanout::mean            0.001939                       # Request fanout histogram
system.tol2bus.snoop_fanout::stdev           0.043992                       # Request fanout histogram
system.tol2bus.snoop_fanout::underflows             0      0.00%      0.00% # Request fanout histogram
system.tol2bus.snoop_fanout::0                 126109     99.81%     99.81% # Request fanout histogram
system.tol2bus.snoop_fanout::1                    245      0.19%    100.00% # Request fanout histogram
system.tol2bus.snoop_fanout::2                      0      0.00%    100.00% # Request fanout histogram
system.tol2bus.snoop_fanout::overflows              0      0.00%    100.00% # Request fanout histogram
system.tol2bus.snoop_fanout::min_value              0                       # Request fanout histogram
system.tol2bus.snoop_fanout::max_value              1                       # Request fanout histogram
system.tol2bus.snoop_fanout::total             126354                       # Request fanout histogram
system.tol2bus.reqLayer0.occupancy          364196000                       # Layer occupancy (ticks)
system.tol2bus.reqLayer0.utilization              1.6                       # Layer utilization (%)
system.tol2bus.respLayer1.occupancy         402499995                       # Layer occupancy (ticks)
system.tol2bus.respLayer1.utilization             1.8                       # Layer utilization (%)
system.tol2bus.respLayer0.occupancy           2340000                       # Layer occupancy (ticks)
system.tol2bus.respLayer0.utilization             0.0                       # Layer utilization (%)
system.voltage_domain.voltage                       1                       # Voltage in Volts
system.clk_domain.clock                          1000                       # Clock period in ticks
system.l2.pwrStateResidencyTicks::UNDEFINED  22874042000                       # Cumulative time (in ticks) in various power states
system.l2.demand_hits::.cpu.inst                  119                       # number of demand (read+write) hits
system.l2.demand_hits::.cpu.data                 2756                       # number of demand (read+write) hits
system.l2.demand_hits::total                     2875                       # number of demand (read+write) hits
system.l2.overall_hits::.cpu.inst                 119                       # number of overall hits
system.l2.overall_hits::.cpu.data                2756                       # number of overall hits
system.l2.overall_hits::total                    2875                       # number of overall hits
system.l2.demand_misses::.cpu.inst                349                       # number of demand (read+write) misses
system.l2.demand_misses::.cpu.data              77743                       # number of demand (read+write) misses
system.l2.demand_misses::total                  78092                       # number of demand (read+write) misses
system.l2.overall_misses::.cpu.inst               349                       # number of overall misses
system.l2.overall_misses::.cpu.data             77743                       # number of overall misses
system.l2.overall_misses::total                 78092                       # number of overall misses
system.l2.demand_miss_latency::.cpu.inst     36439000                       # number of demand (read+write) miss cycles
system.l2.demand_miss_latency::.cpu.data   8356210000                       # number of demand (read+write) miss cycles
system.l2.demand_miss_latency::total       8392649000                       # number of demand (read+write) miss cycles
system.l2.overall_miss_latency::.cpu.inst     36439000                       # number of overall miss cycles
system.l2.overall_miss_latency::.cpu.data   8356210000                       # number of overall miss cycles
system.l2.overall_miss_latency::total      8392649000                       # number of overall miss cycles
system.l2.demand_accesses::.cpu.inst              468                       # number of demand (read+write) accesses
system.l2.demand_accesses::.cpu.data            80499                       # number of demand (read+write) accesses
system.l2.demand_accesses::total                80967                       # number of demand (read+write) accesses
system.l2.overall_accesses::.cpu.inst             468                       # number of overall (read+write) accesses
system.l2.overall_accesses::.cpu.data           80499                       # number of overall (read+write) accesses
system.l2.overall_accesses::total               80967                       # number of overall (read+write) accesses
system.l2.demand_miss_rate::.cpu.inst        0.745726                       # miss rate for demand accesses
system.l2.demand_miss_rate::.cpu.data        0.965764                       # miss rate for demand accesses
system.l2.demand_miss_rate::total            0.964492                       # miss rate for demand accesses
system.l2.overall_miss_rate::.cpu.inst       0.745726                       # miss rate for overall accesses
system.l2.overall_miss_rate::.cpu.data       0.965764                       # miss rate for overall accesses
system.l2.overall_miss_rate::total           0.964492                       # miss rate for overall accesses
system.l2.demand_avg_miss_latency::.cpu.inst 104409.742120                       # average overall miss latency
system.l2.demand_avg_miss_latency::.cpu.data 107485.046885                       # average overall miss latency
system.l2.demand_avg_miss_latency::total 107471.303078                       # average overall miss latency
system.l2.overall_avg_miss_latency::.cpu.inst 104409.742120                       # average overall miss latency
system.l2.overall_avg_miss_latency::.cpu.data 107485.046885                       # average overall miss latency
system.l2.overall_avg_miss_latency::total 107471.303078                       # average overall miss latency
system.l2.blocked_cycles::no_mshrs                  0                       # number of cycles access was blocked
system.l2.blocked_cycles::no_targets                0                       # number of cycles access was blocked
system.l2.blocked::no_mshrs                         0                       # number of cycles access was blocked
system.l2.blocked::no_targets                       0                       # number of cycles access was blocked
system.l2.avg_blocked_cycles::no_mshrs            nan                       # average number of cycles each access was blocked
system.l2.avg_blocked_cycles::no_targets          nan                       # average number of cycles each access was blocked
system.l2.writebacks::.writebacks               38088                       # number of writebacks
system.l2.writebacks::total                     38088                       # number of writebacks
system.l2.demand_mshr_hits::.cpu.data               5                       # number of demand (read+write) MSHR hits
system.l2.demand_mshr_hits::total                   5                       # number of demand (read+write) MSHR hits
system.l2.overall_mshr_hits::.cpu.data              5                       # number of overall MSHR hits
system.l2.overall_mshr_hits::total                  5                       # number of overall MSHR hits
system.l2.demand_mshr_misses::.cpu.inst           349                       # number of demand (read+write) MSHR misses
system.l2.demand_mshr_misses::.cpu.data         77738                       # number of demand (read+write) MSHR misses
system.l2.demand_mshr_misses::total             78087                       # number of demand (read+write) MSHR misses
system.l2.overall_mshr_misses::.cpu.inst          349                       # number of overall MSHR misses
system.l2.overall_mshr_misses::.cpu.data        77738                       # number of overall MSHR misses
system.l2.overall_mshr_misses::total            78087                       # number of overall MSHR misses
system.l2.demand_mshr_miss_latency::.cpu.inst     29459000                       # number of demand (read+write) MSHR miss cycles
system.l2.demand_mshr_miss_latency::.cpu.data   6801011000                       # number of demand (read+write) MSHR miss cycles
system.l2.demand_mshr_miss_latency::total   6830470000                       # number of demand (read+write) MSHR miss cycles
system.l2.overall_mshr_miss_latency::.cpu.inst     29459000                       # number of overall MSHR miss cycles
system.l2.overall_mshr_miss_latency::.cpu.data   6801011000                       # number of overall MSHR miss cycles
system.l2.overall_mshr_miss_latency::total   6830470000                       # number of overall MSHR miss cycles
system.l2.demand_mshr_miss_rate::.cpu.inst     0.745726                       # mshr miss rate for demand accesses
system.l2.demand_mshr_miss_rate::.cpu.data     0.965701                       # mshr miss rate for demand accesses
system.l2.demand_mshr_miss_rate::total       0.964430                       # mshr miss rate for demand accesses
system.l2.overall_mshr_miss_rate::.cpu.inst     0.745726                       # mshr miss rate for overall accesses
system.l2.overall_mshr_miss_rate::.cpu.data     0.965701                       # mshr miss rate for overall accesses
system.l2.overall_mshr_miss_rate::total      0.964430                       # mshr miss rate for overall accesses
system.l2.demand_avg_mshr_miss_latency::.cpu.inst 84409.742120                       # average overall mshr miss latency
system.l2.demand_avg_mshr_miss_latency::.cpu.data 87486.313000                       # average overall mshr miss latency
system.l2.demand_avg_mshr_miss_latency::total 87472.562654                       # average overall mshr miss latency
system.l2.overall_avg_mshr_miss_latency::.cpu.inst 84409.742120                       # average overall mshr miss latency
system.l2.overall_avg_mshr_miss_latency::.cpu.data 87486.313000                       # average overall mshr miss latency
system.l2.overall_avg_mshr_miss_latency::total 87472.562654                       # average overall mshr miss latency
system.l2.replacements                          45387                       # number of replacements
system.l2.WritebackDirty_hits::.writebacks        50606                       # number of WritebackDirty hits
system.l2.WritebackDirty_hits::total            50606                       # number of WritebackDirty hits
system.l2.WritebackDirty_accesses::.writebacks        50606                       # number of WritebackDirty accesses(hits+misses)
system.l2.WritebackDirty_accesses::total        50606                       # number of WritebackDirty accesses(hits+misses)
system.l2.WritebackClean_hits::.writebacks          253                       # number of WritebackClean hits
system.l2.WritebackClean_hits::total              253                       # number of WritebackClean hits
system.l2.WritebackClean_accesses::.writebacks          253                       # number of WritebackClean accesses(hits+misses)
system.l2.WritebackClean_accesses::total          253                       # number of WritebackClean accesses(hits+misses)
system.l2.ReadExReq_hits::.cpu.data                 6                       # number of ReadExReq hits
system.l2.ReadExReq_hits::total                     6                       # number of ReadExReq hits
system.l2.ReadExReq_misses::.cpu.data           50495                       # number of ReadExReq misses
system.l2.ReadExReq_misses::total               50495                       # number of ReadExReq misses
system.l2.ReadExReq_miss_latency::.cpu.data   5515556000                       # number of ReadExReq miss cycles
system.l2.ReadExReq_miss_latency::total    5515556000                       # number of ReadExReq miss cycles
system.l2.ReadExReq_accesses::.cpu.data         50501                       # number of ReadExReq accesses(hits+misses)
system.l2.ReadExReq_accesses::total             50501                       # number of ReadExReq accesses(hits+misses)
system.l2.ReadExReq_miss_rate::.cpu.data     0.999881                       # miss rate for ReadExReq accesses
system.l2.ReadExReq_miss_rate::total         0.999881                       # miss rate for ReadExReq accesses
system.l2.ReadExReq_avg_miss_latency::.cpu.data 109229.745519                       # average ReadExReq miss latency
system.l2.ReadExReq_avg_miss_latency::total 109229.745519                       # average ReadExReq miss latency
system.l2.ReadExReq_mshr_misses::.cpu.data        50495                       # number of ReadExReq MSHR misses
system.l2.ReadExReq_mshr_misses::total          50495                       # number of ReadExReq MSHR misses
system.l2.ReadExReq_mshr_miss_latency::.cpu.data   4505656000                       # number of ReadExReq MSHR miss cycles
system.l2.ReadExReq_mshr_miss_latency::total   4505656000                       # number of ReadExReq MSHR miss cycles
system.l2.ReadExReq_mshr_miss_rate::.cpu.data     0.999881                       # mshr miss rate for ReadExReq accesses
system.l2.ReadExReq_mshr_miss_rate::total     0.999881                       # mshr miss rate for ReadExReq accesses
system.l2.ReadExReq_avg_mshr_miss_latency::.cpu.data 89229.745519                       # average ReadExReq mshr miss latency
system.l2.ReadExReq_avg_mshr_miss_latency::total 89229.745519                       # average ReadExReq mshr miss latency
system.l2.ReadCleanReq_hits::.cpu.inst            119                       # number of ReadCleanReq hits
system.l2.ReadCleanReq_hits::total                119                       # number of ReadCleanReq hits
system.l2.ReadCleanReq_misses::.cpu.inst          349                       # number of ReadCleanReq misses
system.l2.ReadCleanReq_misses::total              349                       # number of ReadCleanReq misses
system.l2.ReadCleanReq_miss_latency::.cpu.inst     36439000                       # number of ReadCleanReq miss cycles
system.l2.ReadCleanReq_miss_latency::total     36439000                       # number of ReadCleanReq miss cycles
system.l2.ReadCleanReq_accesses::.cpu.inst          468                       # number of ReadCleanReq accesses(hits+misses)
system.l2.ReadCleanReq_accesses::total            468                       # number of ReadCleanReq accesses(hits+misses)
system.l2.ReadCleanReq_miss_rate::.cpu.inst     0.745726                       # miss rate for ReadCleanReq accesses
system.l2.ReadCleanReq_miss_rate::total      0.745726                       # miss rate for ReadCleanReq accesses
system.l2.ReadCleanReq_avg_miss_latency::.cpu.inst 104409.742120                       # average ReadCleanReq miss latency
system.l2.ReadCleanReq_avg_miss_latency::total 104409.742120                       # average ReadCleanReq miss latency
system.l2.ReadCleanReq_mshr_misses::.cpu.inst          349                       # number of ReadCleanReq MSHR misses
system.l2.ReadCleanReq_mshr_misses::total          349                       # number of ReadCleanReq MSHR misses
system.l2.ReadCleanReq_mshr_miss_latency::.cpu.inst     29459000                       # number of ReadCleanReq MSHR miss cycles
system.l2.ReadCleanReq_mshr_miss_latency::total     29459000                       # number of ReadCleanReq MSHR miss cycles
system.l2.ReadCleanReq_mshr_miss_rate::.cpu.inst     0.745726                       # mshr miss rate for ReadCleanReq accesses
system.l2.ReadCleanReq_mshr_miss_rate::total     0.745726                       # mshr miss rate for ReadCleanReq accesses
system.l2.ReadCleanReq_avg_mshr_miss_latency::.cpu.inst 84409.742120                       # average ReadCleanReq mshr miss latency
system.l2.ReadCleanReq_avg_mshr_miss_latency::total 84409.742120                       # average ReadCleanReq mshr miss latency
system.l2.ReadSharedReq_hits::.cpu.data          2750                       # number of ReadSharedReq hits
system.l2.ReadSharedReq_hits::total              2750                       # number of ReadSharedReq hits
system.l2.ReadSharedReq_misses::.cpu.data        27248                       # number of ReadSharedReq misses
system.l2.ReadSharedReq_misses::total           27248                       # number of ReadSharedReq misses
system.l2.ReadSharedReq_miss_latency::.cpu.data   2840654000                       # number of ReadSharedReq miss cycles
system.l2.ReadSharedReq_miss_latency::total   2840654000                       # number of ReadSharedReq miss cycles
system.l2.ReadSharedReq_accesses::.cpu.data        29998                       # number of ReadSharedReq accesses(hits+misses)
system.l2.ReadSharedReq_accesses::total         29998                       # number of ReadSharedReq accesses(hits+misses)
system.l2.ReadSharedReq_miss_rate::.cpu.data     0.908327                       # miss rate for ReadSharedReq accesses
system.l2.ReadSharedReq_miss_rate::total     0.908327                       # miss rate for ReadSharedReq accesses
system.l2.ReadSharedReq_avg_miss_latency::.cpu.data 104251.834997                       # average ReadSharedReq miss latency
system.l2.ReadSharedReq_avg_miss_latency::total 104251.834997                       # average ReadSharedReq miss latency
system.l2.ReadSharedReq_mshr_hits::.cpu.data            5                       # number of ReadSharedReq MSHR hits
system.l2.ReadSharedReq_mshr_hits::total            5                       # number of ReadSharedReq MSHR hits
system.l2.ReadSharedReq_mshr_misses::.cpu.data        27243                       # number of ReadSharedReq MSHR misses
system.l2.ReadSharedReq_mshr_misses::total        27243                       # number of ReadSharedReq MSHR misses
system.l2.ReadSharedReq_mshr_miss_latency::.cpu.data   2295355000                       # number of ReadSharedReq MSHR miss cycles
system.l2.ReadSharedReq_mshr_miss_latency::total   2295355000                       # number of ReadSharedReq MSHR miss cycles
system.l2.ReadSharedReq_mshr_miss_rate::.cpu.data     0.908161                       # mshr miss rate for ReadSharedReq accesses
system.l2.ReadSharedReq_mshr_miss_rate::total     0.908161                       # mshr miss rate for ReadSharedReq accesses
system.l2.ReadSharedReq_avg_mshr_miss_latency::.cpu.data 84254.854458                       # average ReadSharedReq mshr miss latency
system.l2.ReadSharedReq_avg_mshr_miss_latency::total 84254.854458                       # average ReadSharedReq mshr miss latency
system.l2.tags.pwrStateResidencyTicks::UNDEFINED  22874042000                       # Cumulative time (in ticks) in various power states
system.l2.tags.tagsinuse                 27162.121246                       # Cycle average of tags in use
system.l2.tags.total_refs                      160662                       # Total number of references to valid blocks.
system.l2.tags.sampled_refs                     78155                       # Sample count of references to valid blocks.
system.l2.tags.avg_refs                      2.055684                       # Average number of references to valid blocks.
system.l2.tags.warmup_cycle                     92000                       # Cycle when the warmup percentage was hit.
system.l2.tags.occ_blocks::.writebacks      39.975955                       # Average occupied blocks per requestor
system.l2.tags.occ_blocks::.cpu.inst       107.391209                       # Average occupied blocks per requestor
system.l2.tags.occ_blocks::.cpu.data     27014.754082                       # Average occupied blocks per requestor
system.l2.tags.occ_percent::.writebacks      0.001220                       # Average percentage of cache occupancy
system.l2.tags.occ_percent::.cpu.inst        0.003277                       # Average percentage of cache occupancy
system.l2.tags.occ_percent::.cpu.data        0.824425                       # Average percentage of cache occupancy
system.l2.tags.occ_percent::total            0.828922                       # Average percentage of cache occupancy
system.l2.tags.occ_task_id_blocks::1024         32768                       # Occupied blocks per task id
system.l2.tags.age_task_id_blocks_1024::0            1                       # Occupied blocks per task id
system.l2.tags.age_task_id_blocks_1024::1            4                       # Occupied blocks per task id
system.l2.tags.age_task_id_blocks_1024::2           81                       # Occupied blocks per task id
system.l2.tags.age_task_id_blocks_1024::3          906                       # Occupied blocks per task id
system.l2.tags.age_task_id_blocks_1024::4        31776                       # Occupied blocks per task id
system.l2.tags.occ_task_id_percent::1024            1                       # Percentage of cache occupancy per task id
system.l2.tags.tag_accesses                   1363491                       # Number of tag accesses
system.l2.tags.data_accesses                  1363491                       # Number of data accesses
system.cpu_voltage_domain.voltage                   1                       # Voltage in Volts
system.mem_ctrls.pwrStateResidencyTicks::UNDEFINED  22874042000                       # Cumulative time (in ticks) in various power states
system.mem_ctrls.bytes_read::.cpu.inst          44672                       # Number of bytes read from this memory
system.mem_ctrls.bytes_read::.cpu.data        9950464                       # Number of bytes read from this memory
system.mem_ctrls.bytes_read::total            9995136                       # Number of bytes read from this memory
system.mem_ctrls.bytes_inst_read::.cpu.inst        44672                       # Number of instructions bytes read from this memory
system.mem_ctrls.bytes_inst_read::total         44672                       # Number of instructions bytes read from this memory
system.mem_ctrls.bytes_written::.writebacks      4875264                       # Number of bytes written to this memory
system.mem_ctrls.bytes_written::total         4875264                       # Number of bytes written to this memory
system.mem_ctrls.num_reads::.cpu.inst             349                       # Number of read requests responded to by this memory
system.mem_ctrls.num_reads::.cpu.data           77738                       # Number of read requests responded to by this memory
system.mem_ctrls.num_reads::total               78087                       # Number of read requests responded to by this memory
system.mem_ctrls.num_writes::.writebacks        38088                       # Number of write requests responded to by this memory
system.mem_ctrls.num_writes::total              38088                       # Number of write requests responded to by this memory
system.mem_ctrls.bw_read::.cpu.inst           1952956                       # Total read bandwidth from this memory (bytes/s)
system.mem_ctrls.bw_read::.cpu.data         435011180                       # Total read bandwidth from this memory (bytes/s)
system.mem_ctrls.bw_read::total             436964136                       # Total read bandwidth from this memory (bytes/s)
system.mem_ctrls.bw_inst_read::.cpu.inst      1952956                       # Instruction read bandwidth from this memory (bytes/s)
system.mem_ctrls.bw_inst_read::total          1952956                       # Instruction read bandwidth from this memory (bytes/s)
system.mem_ctrls.bw_write::.writebacks      213135221                       # Write bandwidth from this memory (bytes/s)
system.mem_ctrls.bw_write::total            213135221                       # Write bandwidth from this memory (bytes/s)
system.mem_ctrls.bw_total::.writebacks      213135221                       # Total bandwidth to/from this memory (bytes/s)
system.mem_ctrls.bw_total::.cpu.inst          1952956                       # Total bandwidth to/from this memory (bytes/s)
system.mem_ctrls.bw_total::.cpu.data        435011180                       # Total bandwidth to/from this memory (bytes/s)
system.mem_ctrls.bw_total::total            650099357                       # Total bandwidth to/from this memory (bytes/s)
system.mem_ctrls.avgPriority_.writebacks::samples     76176.00                       # Average QoS priority value for accepted requests
system.mem_ctrls.avgPriority_.cpu.inst::samples       698.00                       # Average QoS priority value for accepted requests
system.mem_ctrls.avgPriority_.cpu.data::samples    155476.00                       # Average QoS priority value for accepted requests
system.mem_ctrls.priorityMinLatency      0.000000018750                       # per QoS priority minimum request to response latency (s)
system.mem_ctrls.priorityMaxLatency      0.001529040250                       # per QoS priority maximum request to response latency (s)
system.mem_ctrls.numReadWriteTurnArounds         4713                       # Number of turnarounds from READ to WRITE
system.mem_ctrls.numWriteReadTurnArounds         4713                       # Number of turnarounds from WRITE to READ
system.mem_ctrls.numStayReadState              269834                       # Number of times bus staying in READ state
system.mem_ctrls.numStayWriteState              71523                       # Number of times bus staying in WRITE state
system.mem_ctrls.readReqs                       78087                       # Number of read requests accepted
system.mem_ctrls.writeReqs                      38088                       # Number of write requests accepted
system.mem_ctrls.readBursts                    156174                       # Number of DRAM read bursts, including those serviced by the write queue
system.mem_ctrls.writeBursts                    76176                       # Number of DRAM write bursts, including those merged in the write queue
system.mem_ctrls.servicedByWrQ                      0                       # Number of DRAM read bursts serviced by the write queue
system.mem_ctrls.mergedWrBursts                     0                       # Number of DRAM write bursts merged with an existing one
system.mem_ctrls.neitherReadNorWriteReqs            0                       # Number of requests that are neither read nor write
system.mem_ctrls.perBankRdBursts::0             10060                       # Per bank write bursts
system.mem_ctrls.perBankRdBursts::1              9880                       # Per bank write bursts
system.mem_ctrls.perBankRdBursts::2              9778                       # Per bank write bursts
system.mem_ctrls.perBankRdBursts::3              9610                       # Per bank write bursts
system.mem_ctrls.perBankRdBursts::4              9838                       # Per bank write bursts
system.mem_ctrls.perBankRdBursts::5              9820                       # Per bank write bursts
system.mem_ctrls.perBankRdBursts::6              9812                       # Per bank write bursts
system.mem_ctrls.perBankRdBursts::7              9888                       # Per bank write bursts
system.mem_ctrls.perBankRdBursts::8              9606                       # Per bank write bursts
system.mem_ctrls.perBankRdBursts::9              9600                       # Per bank write bursts
system.mem_ctrls.perBankRdBursts::10             9770                       # Per bank write bursts
system.mem_ctrls.perBankRdBursts::11             9744                       # Per bank write bursts
system.mem_ctrls.perBankRdBursts::12             9782                       # Per bank write bursts
system.mem_ctrls.perBankRdBursts::13             9602                       # Per bank write bursts
system.mem_ctrls.perBankRdBursts::14             9572                       # Per bank write bursts
system.mem_ctrls.perBankRdBursts::15             9812                       # Per bank write bursts
system.mem_ctrls.perBankWrBursts::0              4868                       # Per bank write bursts
system.mem_ctrls.perBankWrBursts::1              4854                       # Per bank write bursts
system.mem_ctrls.perBankWrBursts::2              4843                       # Per bank write bursts
system.mem_ctrls.perBankWrBursts::3              4802                       # Per bank write bursts
system.mem_ctrls.perBankWrBursts::4              4778                       # Per bank write bursts
system.mem_ctrls.perBankWrBursts::5              4758                       # Per bank write bursts
system.mem_ctrls.perBankWrBursts::6              4766                       # Per bank write bursts
system.mem_ctrls.perBankWrBursts::7              4752                       # Per bank write bursts
system.mem_ctrls.perBankWrBursts::8              4714                       # Per bank write bursts
system.mem_ctrls.perBankWrBursts::9              4702                       # Per bank write bursts
system.mem_ctrls.perBankWrBursts::10             4704                       # Per bank write bursts
system.mem_ctrls.perBankWrBursts::11             4720                       # Per bank write bursts
system.mem_ctrls.perBankWrBursts::12             4726                       # Per bank write bursts
system.mem_ctrls.perBankWrBursts::13             4714                       # Per bank write bursts
system.mem_ctrls.perBankWrBursts::14             4700                       # Per bank write bursts
system.mem_ctrls.perBankWrBursts::15             4754                       # Per bank write bursts
system.mem_ctrls.avgRdQLen                       2.12                       # Average read queue length when enqueuing
system.mem_ctrls.avgWrQLen                      25.23                       # Average write queue length when enqueuing
system.mem_ctrls.totQLat                   2322506250                       # Total ticks spent queuing
system.mem_ctrls.totBusLat                  780870000                       # Total ticks spent in databus transfers
system.mem_ctrls.totMemAccLat              5250768750                       # Total ticks spent from burst creation until serviced by the DRAM
system.mem_ctrls.avgQLat                     14871.27                       # Average queueing delay per DRAM burst
system.mem_ctrls.avgBusLat                    5000.00                       # Average bus latency per DRAM burst
system.mem_ctrls.avgMemAccLat                33621.27                       # Average memory access latency per DRAM burst
system.mem_ctrls.numRdRetry                         0                       # Number of times read queue was full causing retry
system.mem_ctrls.numWrRetry                         0                       # Number of times write queue was full causing retry
system.mem_ctrls.readRowHits                   143982                       # Number of row buffer hits during reads
system.mem_ctrls.writeRowHits                   69717                       # Number of row buffer hits during writes
system.mem_ctrls.readRowHitRate                 92.19                       # Row buffer hit rate for reads
system.mem_ctrls.writeRowHitRate                91.52                       # Row buffer hit rate for writes
system.mem_ctrls.readPktSize::0                     0                       # Read request sizes (log2)
system.mem_ctrls.readPktSize::1                     0                       # Read request sizes (log2)
system.mem_ctrls.readPktSize::2                     0                       # Read request sizes (log2)
system.mem_ctrls.readPktSize::3                     0                       # Read request sizes (log2)
system.mem_ctrls.readPktSize::4                     0                       # Read request sizes (log2)
system.mem_ctrls.readPktSize::5                     0                       # Read request sizes (log2)
system.mem_ctrls.readPktSize::6                156174                       # Read request sizes (log2)
system.mem_ctrls.writePktSize::0                    0                       # Write request sizes (log2)
system.mem_ctrls.writePktSize::1                    0                       # Write request sizes (log2)
system.mem_ctrls.writePktSize::2                    0                       # Write request sizes (log2)
system.mem_ctrls.writePktSize::3                    0                       # Write request sizes (log2)
system.mem_ctrls.writePktSize::4                    0                       # Write request sizes (log2)
system.mem_ctrls.writePktSize::5                    0                       # Write request sizes (log2)
system.mem_ctrls.writePktSize::6                76176                       # Write request sizes (log2)
system.mem_ctrls.rdQLenPdf::0                   63736                       # What read queue length does an incoming req see
system.mem_ctrls.rdQLenPdf::1                   72423                       # What read queue length does an incoming req see
system.mem_ctrls.rdQLenPdf::2                   14348                       # What read queue length does an incoming req see
system.mem_ctrls.rdQLenPdf::3                    5661                       # What read queue length does an incoming req see
system.mem_ctrls.rdQLenPdf::4                       2                       # What read queue length does an incoming req see
system.mem_ctrls.rdQLenPdf::5                       2                       # What read queue length does an incoming req see
system.mem_ctrls.rdQLenPdf::6                       1                       # What read queue length does an incoming req see
system.mem_ctrls.rdQLenPdf::7                       1                       # What read queue length does an incoming req see
system.mem_ctrls.rdQLenPdf::8                       0                       # What read queue length does an incoming req see
system.mem_ctrls.rdQLenPdf::9                       0                       # What read queue length does an incoming req see
system.mem_ctrls.rdQLenPdf::10                      0                       # What read queue length does an incoming req see
system.mem_ctrls.rdQLenPdf::11                      0                       # What read queue length does an incoming req see
system.mem_ctrls.rdQLenPdf::12                      0                       # What read queue length does an incoming req see
system.mem_ctrls.rdQLenPdf::13                      0                       # What read queue length does an incoming req see
system.mem_ctrls.rdQLenPdf::14                      0                       # What read queue length does an incoming req see
system.mem_ctrls.rdQLenPdf::15                      0                       # What read queue length does an incoming req see
system.mem_ctrls.rdQLenPdf::16                      0                       # What read queue length does an incoming req see
system.mem_ctrls.rdQLenPdf::17                      0                       # What read queue length does an incoming req see
system.mem_ctrls.rdQLenPdf::18                      0                       # What read queue length does an incoming req see
system.mem_ctrls.rdQLenPdf::19                      0                       # What read queue length does an incoming req see
system.mem_ctrls.rdQLenPdf::20                      0                       # What read queue length does an incoming req see
system.mem_ctrls.rdQLenPdf::21                      0                       # What read queue length does an incoming req see
system.mem_ctrls.rdQLenPdf::22                      0                       # What read queue length does an incoming req see
system.mem_ctrls.rdQLenPdf::23                      0                       # What read queue length does an incoming req see
system.mem_ctrls.rdQLenPdf::24                      0                       # What read queue length does an incoming req see
system.mem_ctrls.rdQLenPdf::25                      0                       # What read queue length does an incoming req see
system.mem_ctrls.rdQLenPdf::26                      0                       # What read queue length does an incoming req see
system.mem_ctrls.rdQLenPdf::27                      0                       # What read queue length does an incoming req see
system.mem_ctrls.rdQLenPdf::28                      0                       # What read queue length does an incoming req see
system.mem_ctrls.rdQLenPdf::29                      0                       # What read queue length does an incoming req see
system.mem_ctrls.rdQLenPdf::30                      0                       # What read queue length does an incoming req see
system.mem_ctrls.rdQLenPdf::31                      0                       # What read queue length does an incoming req see
system.mem_ctrls.wrQLenPdf::0                       1                       # What write queue length does an incoming req see
system.mem_ctrls.wrQLenPdf::1                       1                       # What write queue length does an incoming req see
system.mem_ctrls.wrQLenPdf::2                       1                       # What write queue length does an incoming req see
system.mem_ctrls.wrQLenPdf::3                       1                       # What write queue length does an incoming req see
system.mem_ctrls.wrQLenPdf::4                       1                       # What write queue length does an incoming req see
system.mem_ctrls.wrQLenPdf::5                       1                       # What write queue length does an incoming req see
system.mem_ctrls.wrQLenPdf::6                       1                       # What write queue length does an incoming req see
system.mem_ctrls.wrQLenPdf::7                       1                       # What write queue length does an incoming req see
system.mem_ctrls.wrQLenPdf::8                       1                       # What write queue length does an incoming req see
system.mem_ctrls.wrQLenPdf::9                       1                       # What write queue length does an incoming req see
system.mem_ctrls.wrQLenPdf::10                      1                       # What write queue length does an incoming req see
system.mem_ctrls.wrQLenPdf::11                      1                       # What write queue length does an incoming req see
system.mem_ctrls.wrQLenPdf::12                      1                       # What write queue length does an incoming req see
system.mem_ctrls.wrQLenPdf::13                      1                       # What write queue length does an incoming req see
system.mem_ctrls.wrQLenPdf::14                      1                       # What write queue length does an incoming req see
system.mem_ctrls.wrQLenPdf::15                    154                       # What write queue length does an incoming req see
system.mem_ctrls.wrQLenPdf::16                    243                       # What write queue length does an incoming req see
system.mem_ctrls.wrQLenPdf::17                   1306                       # What write queue length does an incoming req see
system.mem_ctrls.wrQLenPdf::18                   4375                       # What write queue length does an incoming req see
system.mem_ctrls.wrQLenPdf::19                   4462                       # What write queue length does an incoming req see
system.mem_ctrls.wrQLenPdf::20                   4742                       # What write queue length does an incoming req see
system.mem_ctrls.wrQLenPdf::21                   4965                       # What write queue length does an incoming req see
system.mem_ctrls.wrQLenPdf::22                   4979                       # What write queue length does an incoming req see
system.mem_ctrls.wrQLenPdf::23                   4825                       # What write queue length does an incoming req see
system.mem_ctrls.wrQLenPdf::24                   4794                       # What write queue length does an incoming req see
system.mem_ctrls.wrQLenPdf::25                   4736                       # What write queue length does an incoming req see
system.mem_ctrls.wrQLenPdf::26                   4768                       # What write queue length does an incoming req see
system.mem_ctrls.wrQLenPdf::27                   4757                       # What write queue length does an incoming req see
system.mem_ctrls.wrQLenPdf::28                   4716                       # What write queue length does an incoming req see
system.mem_ctrls.wrQLenPdf::29                   4747                       # What write queue length does an incoming req see
system.mem_ctrls.wrQLenPdf::30                   4746                       # What write queue length does an incoming req see
system.mem_ctrls.wrQLenPdf::31                   4713                       # What write queue length does an incoming req see
system.mem_ctrls.wrQLenPdf::32                   4713                       # What write queue length does an incoming req see
system.mem_ctrls.wrQLenPdf::33                   3412                       # What write queue length does an incoming req see
system.mem_ctrls.wrQLenPdf::34                      4                       # What write queue length does an incoming req see
system.mem_ctrls.wrQLenPdf::35                      4                       # What write queue length does an incoming req see
system.mem_ctrls.wrQLenPdf::36                      0                       # What write queue length does an incoming req see
system.mem_ctrls.wrQLenPdf::37                      0                       # What write queue length does an incoming req see
system.mem_ctrls.wrQLenPdf::38                      0                       # What write queue length does an incoming req see
system.mem_ctrls.wrQLenPdf::39                      0                       # What write queue length does an incoming req see
system.mem_ctrls.wrQLenPdf::40                      0                       # What write queue length does an incoming req see
system.mem_ctrls.wrQLenPdf::41                      0                       # What write queue length does an incoming req see
system.mem_ctrls.wrQLenPdf::42                      0                       # What write queue length does an incoming req see
system.mem_ctrls.wrQLenPdf::43                      0                       # What write queue length does an incoming req see
system.mem_ctrls.wrQLenPdf::44                      0                       # What write queue length does an incoming req see
system.mem_ctrls.wrQLenPdf::45                      0                       # What write queue length does an incoming req see
system.mem_ctrls.wrQLenPdf::46                      0                       # What write queue length does an incoming req see
system.mem_ctrls.wrQLenPdf::47                      0                       # What write queue length does an incoming req see
system.mem_ctrls.wrQLenPdf::48                      0                       # What write queue length does an incoming req see
system.mem_ctrls.wrQLenPdf::49                      0                       # What write queue length does an incoming req see
system.mem_ctrls.wrQLenPdf::50                      0                       # What write queue length does an incoming req see
system.mem_ctrls.wrQLenPdf::51                      0                       # What write queue length does an incoming req see
system.mem_ctrls.wrQLenPdf::52                      0                       # What write queue length does an incoming req see
system.mem_ctrls.wrQLenPdf::53                      0                       # What write queue length does an incoming req see
system.mem_ctrls.wrQLenPdf::54                      0                       # What write queue length does an incoming req see
system.mem_ctrls.wrQLenPdf::55                      0                       # What write queue length does an incoming req see
system.mem_ctrls.wrQLenPdf::56                      0                       # What write queue length does an incoming req see
system.mem_ctrls.wrQLenPdf::57                      0                       # What write queue length does an incoming req see
system.mem_ctrls.wrQLenPdf::58                      0                       # What write queue length does an incoming req see
system.mem_ctrls.wrQLenPdf::59                      0                       # What write queue length does an incoming req see
system.mem_ctrls.wrQLenPdf::60                      0                       # What write queue length does an incoming req see
system.mem_ctrls.wrQLenPdf::61                      0                       # What write queue length does an incoming req see
system.mem_ctrls.wrQLenPdf::62                      0                       # What write queue length does an incoming req see
system.mem_ctrls.wrQLenPdf::63                      0                       # What write queue length does an incoming req see
system.mem_ctrls.bytesPerActivate::samples        18630                       # Bytes accessed per row activation
system.mem_ctrls.bytesPerActivate::mean    798.124316                       # Bytes accessed per row activation
system.mem_ctrls.bytesPerActivate::gmean   670.443291                       # Bytes accessed per row activation
system.mem_ctrls.bytesPerActivate::stdev   332.076217                       # Bytes accessed per row activation
system.mem_ctrls.bytesPerActivate::0-127          170      0.91%      0.91% # Bytes accessed per row activation
system.mem_ctrls.bytesPerActivate::128-255         2010     10.79%     11.70% # Bytes accessed per row activation
system.mem_ctrls.bytesPerActivate::256-383          873      4.69%     16.39% # Bytes accessed per row activation
system.mem_ctrls.bytesPerActivate::384-511          896      4.81%     21.20% # Bytes accessed per row activation
system.mem_ctrls.bytesPerActivate::512-639          793      4.26%     25.45% # Bytes accessed per row activation
system.mem_ctrls.bytesPerActivate::640-767          997      5.35%     30.81% # Bytes accessed per row activation
system.mem_ctrls.bytesPerActivate::768-895          655      3.52%     34.32% # Bytes accessed per row activation
system.mem_ctrls.bytesPerActivate::896-1023          756      4.06%     38.38% # Bytes accessed per row activation
system.mem_ctrls.bytesPerActivate::1024-1151        11480     61.62%    100.00% # Bytes accessed per row activation
system.mem_ctrls.bytesPerActivate::total        18630                       # Bytes accessed per row activation
system.mem_ctrls.rdPerTurnAround::samples         4713                       # Reads before turning the bus around for writes
system.mem_ctrls.rdPerTurnAround::mean      33.133036                       # Reads before turning the bus around for writes
system.mem_ctrls.rdPerTurnAround::gmean     22.341879                       # Reads before turning the bus around for writes
system.mem_ctrls.rdPerTurnAround::stdev    133.607245                       # Reads before turning the bus around for writes
system.mem_ctrls.rdPerTurnAround::0-511          4711     99.96%     99.96% # Reads before turning the bus around for writes
system.mem_ctrls.rdPerTurnAround::512-1023            1      0.02%     99.98% # Reads before turning the bus around for writes
system.mem_ctrls.rdPerTurnAround::8704-9215            1      0.02%    100.00% # Reads before turning the bus around for writes
system.mem_ctrls.rdPerTurnAround::total          4713                       # Reads before turning the bus around for writes
system.mem_ctrls.wrPerTurnAround::samples         4713                       # Writes before turning the bus around for reads
system.mem_ctrls.wrPerTurnAround::mean      16.158498                       # Writes before turning the bus around for reads
system.mem_ctrls.wrPerTurnAround::gmean     16.145984                       # Writes before turning the bus around for reads
system.mem_ctrls.wrPerTurnAround::stdev      0.692949                       # Writes before turning the bus around for reads
system.mem_ctrls.wrPerTurnAround::16             4333     91.94%     91.94% # Writes before turning the bus around for reads
[...]
system.cpu.icache.ReadReq_avg_miss_latency::total 88512.820513                       # average ReadReq miss latency
system.cpu.icache.ReadReq_mshr_misses::.cpu.inst          468                       # number of ReadReq MSHR misses
system.cpu.icache.ReadReq_mshr_misses::total          468                       # number of ReadReq MSHR misses
system.cpu.icache.ReadReq_mshr_miss_latency::.cpu.inst     40488000                       # number of ReadReq MSHR miss cycles
system.cpu.icache.ReadReq_mshr_miss_latency::total     40488000                       # number of ReadReq MSHR miss cycles
system.cpu.icache.ReadReq_mshr_miss_rate::.cpu.inst     0.000450                       # mshr miss rate for ReadReq accesses
system.cpu.icache.ReadReq_mshr_miss_rate::total     0.000450                       # mshr miss rate for ReadReq accesses
system.cpu.icache.ReadReq_avg_mshr_miss_latency::.cpu.inst 86512.820513                       # average ReadReq mshr miss latency
system.cpu.icache.ReadReq_avg_mshr_miss_latency::total 86512.820513                       # average ReadReq mshr miss latency
system.cpu.icache.tags.pwrStateResidencyTicks::UNDEFINED  22874042000                       # Cumulative time (in ticks) in various power states
system.cpu.icache.tags.tagsinuse           193.215441                       # Cycle average of tags in use
system.cpu.icache.tags.total_refs             1039148                       # Total number of references to valid blocks.
system.cpu.icache.tags.sampled_refs               468                       # Sample count of references to valid blocks.
system.cpu.icache.tags.avg_refs           2220.401709                       # Average number of references to valid blocks.
system.cpu.icache.tags.warmup_cycle            113000                       # Cycle when the warmup percentage was hit.
system.cpu.icache.tags.occ_blocks::.cpu.inst   193.215441                       # Average occupied blocks per requestor
system.cpu.icache.tags.occ_percent::.cpu.inst     0.754748                       # Average percentage of cache occupancy
system.cpu.icache.tags.occ_percent::total     0.754748                       # Average percentage of cache occupancy
system.cpu.icache.tags.occ_task_id_blocks::1024          202                       # Occupied blocks per task id
system.cpu.icache.tags.age_task_id_blocks_1024::4          202                       # Occupied blocks per task id
system.cpu.icache.tags.occ_task_id_percent::1024     0.789062                       # Percentage of cache occupancy per task id
system.cpu.icache.tags.tag_accesses           2078764                       # Number of tag accesses
system.cpu.icache.tags.data_accesses          2078764                       # Number of data accesses
system.cpu.dtb.walker.pwrStateResidencyTicks::UNDEFINED  22874042000                       # Cumulative time (in ticks) in various power states
system.cpu.dtb.stage2_mmu.stage2_tlb.walker.pwrStateResidencyTicks::UNDEFINED  22874042000                       # Cumulative time (in ticks) in various power states
system.cpu.dcache.pwrStateResidencyTicks::UNDEFINED  22874042000                       # Cumulative time (in ticks) in various power states
system.cpu.dcache.demand_hits::.cpu.data      7042258                       # number of demand (read+write) hits
system.cpu.dcache.demand_hits::total          7042258                       # number of demand (read+write) hits
system.cpu.dcache.overall_hits::.cpu.data      7042382                       # number of overall hits
system.cpu.dcache.overall_hits::total         7042382                       # number of overall hits
system.cpu.dcache.demand_misses::.cpu.data        99242                       # number of demand (read+write) misses
system.cpu.dcache.demand_misses::total          99242                       # number of demand (read+write) misses
system.cpu.dcache.overall_misses::.cpu.data       100731                       # number of overall misses
system.cpu.dcache.overall_misses::total        100731                       # number of overall misses
system.cpu.dcache.demand_miss_latency::.cpu.data  10737095000                       # number of demand (read+write) miss cycles
system.cpu.dcache.demand_miss_latency::total  10737095000                       # number of demand (read+write) miss cycles
system.cpu.dcache.overall_miss_latency::.cpu.data  10737095000                       # number of overall miss cycles
system.cpu.dcache.overall_miss_latency::total  10737095000                       # number of overall miss cycles
system.cpu.dcache.demand_accesses::.cpu.data      7141500                       # number of demand (read+write) accesses
system.cpu.dcache.demand_accesses::total      7141500                       # number of demand (read+write) accesses
system.cpu.dcache.overall_accesses::.cpu.data      7143113                       # number of overall (read+write) accesses
system.cpu.dcache.overall_accesses::total      7143113                       # number of overall (read+write) accesses
system.cpu.dcache.demand_miss_rate::.cpu.data     0.013897                       # miss rate for demand accesses
system.cpu.dcache.demand_miss_rate::total     0.013897                       # miss rate for demand accesses
system.cpu.dcache.overall_miss_rate::.cpu.data     0.014102                       # miss rate for overall accesses
system.cpu.dcache.overall_miss_rate::total     0.014102                       # miss rate for overall accesses
system.cpu.dcache.demand_avg_miss_latency::.cpu.data 108191.038069                       # average overall miss latency
system.cpu.dcache.demand_avg_miss_latency::total 108191.038069                       # average overall miss latency
system.cpu.dcache.overall_avg_miss_latency::.cpu.data 106591.764204                       # average overall miss latency
system.cpu.dcache.overall_avg_miss_latency::total 106591.764204                       # average overall miss latency
system.cpu.dcache.blocked_cycles::no_mshrs            0                       # number of cycles access was blocked
system.cpu.dcache.blocked_cycles::no_targets            0                       # number of cycles access was blocked
system.cpu.dcache.blocked::no_mshrs                 0                       # number of cycles access was blocked
system.cpu.dcache.blocked::no_targets               0                       # number of cycles access was blocked
system.cpu.dcache.avg_blocked_cycles::no_mshrs          nan                       # average number of cycles each access was blocked
system.cpu.dcache.avg_blocked_cycles::no_targets          nan                       # average number of cycles each access was blocked
system.cpu.dcache.writebacks::.writebacks        50606                       # number of writebacks
system.cpu.dcache.writebacks::total             50606                       # number of writebacks
system.cpu.dcache.demand_mshr_hits::.cpu.data        19495                       # number of demand (read+write) MSHR hits
system.cpu.dcache.demand_mshr_hits::total        19495                       # number of demand (read+write) MSHR hits
system.cpu.dcache.overall_mshr_hits::.cpu.data        19495                       # number of overall MSHR hits
system.cpu.dcache.overall_mshr_hits::total        19495                       # number of overall MSHR hits
system.cpu.dcache.demand_mshr_misses::.cpu.data        79747                       # number of demand (read+write) MSHR misses
system.cpu.dcache.demand_mshr_misses::total        79747                       # number of demand (read+write) MSHR misses
system.cpu.dcache.overall_mshr_misses::.cpu.data        80499                       # number of overall MSHR misses
system.cpu.dcache.overall_mshr_misses::total        80499                       # number of overall MSHR misses
system.cpu.dcache.demand_mshr_miss_latency::.cpu.data   8570728000                       # number of demand (read+write) MSHR miss cycles
system.cpu.dcache.demand_mshr_miss_latency::total   8570728000                       # number of demand (read+write) MSHR miss cycles
system.cpu.dcache.overall_mshr_miss_latency::.cpu.data   8655702000                       # number of overall MSHR miss cycles
system.cpu.dcache.overall_mshr_miss_latency::total   8655702000                       # number of overall MSHR miss cycles
system.cpu.dcache.demand_mshr_miss_rate::.cpu.data     0.011167                       # mshr miss rate for demand accesses
system.cpu.dcache.demand_mshr_miss_rate::total     0.011167                       # mshr miss rate for demand accesses
system.cpu.dcache.overall_mshr_miss_rate::.cpu.data     0.011269                       # mshr miss rate for overall accesses
system.cpu.dcache.overall_mshr_miss_rate::total     0.011269                       # mshr miss rate for overall accesses
system.cpu.dcache.demand_avg_mshr_miss_latency::.cpu.data 107473.986482                       # average overall mshr miss latency
system.cpu.dcache.demand_avg_mshr_miss_latency::total 107473.986482                       # average overall mshr miss latency
system.cpu.dcache.overall_avg_mshr_miss_latency::.cpu.data 107525.584169                       # average overall mshr miss latency
system.cpu.dcache.overall_avg_mshr_miss_latency::total 107525.584169                       # average overall mshr miss latency
system.cpu.dcache.replacements                  79475                       # number of replacements
system.cpu.dcache.ReadReq_hits::.cpu.data      5656301                       # number of ReadReq hits
system.cpu.dcache.ReadReq_hits::total         5656301                       # number of ReadReq hits
system.cpu.dcache.ReadReq_misses::.cpu.data        29711                       # number of ReadReq misses
system.cpu.dcache.ReadReq_misses::total         29711                       # number of ReadReq misses
system.cpu.dcache.ReadReq_miss_latency::.cpu.data   2991681000                       # number of ReadReq miss cycles
system.cpu.dcache.ReadReq_miss_latency::total   2991681000                       # number of ReadReq miss cycles
system.cpu.dcache.ReadReq_accesses::.cpu.data      5686012                       # number of ReadReq accesses(hits+misses)
system.cpu.dcache.ReadReq_accesses::total      5686012                       # number of ReadReq accesses(hits+misses)
system.cpu.dcache.ReadReq_miss_rate::.cpu.data     0.005225                       # miss rate for ReadReq accesses
system.cpu.dcache.ReadReq_miss_rate::total     0.005225                       # miss rate for ReadReq accesses
system.cpu.dcache.ReadReq_avg_miss_latency::.cpu.data 100692.706405                       # average ReadReq miss latency
system.cpu.dcache.ReadReq_avg_miss_latency::total 100692.706405                       # average ReadReq miss latency
system.cpu.dcache.ReadReq_mshr_hits::.cpu.data          465                       # number of ReadReq MSHR hits
system.cpu.dcache.ReadReq_mshr_hits::total          465                       # number of ReadReq MSHR hits
system.cpu.dcache.ReadReq_mshr_misses::.cpu.data        29246                       # number of ReadReq MSHR misses
system.cpu.dcache.ReadReq_mshr_misses::total        29246                       # number of ReadReq MSHR misses
system.cpu.dcache.ReadReq_mshr_miss_latency::.cpu.data   2903538000                       # number of ReadReq MSHR miss cycles
system.cpu.dcache.ReadReq_mshr_miss_latency::total   2903538000                       # number of ReadReq MSHR miss cycles
system.cpu.dcache.ReadReq_mshr_miss_rate::.cpu.data     0.005143                       # mshr miss rate for ReadReq accesses
system.cpu.dcache.ReadReq_mshr_miss_rate::total     0.005143                       # mshr miss rate for ReadReq accesses
system.cpu.dcache.ReadReq_avg_mshr_miss_latency::.cpu.data 99279.833140                       # average ReadReq mshr miss latency
system.cpu.dcache.ReadReq_avg_mshr_miss_latency::total 99279.833140                       # average ReadReq mshr miss latency
system.cpu.dcache.WriteReq_hits::.cpu.data      1385957                       # number of WriteReq hits
system.cpu.dcache.WriteReq_hits::total        1385957                       # number of WriteReq hits
system.cpu.dcache.WriteReq_misses::.cpu.data        69531                       # number of WriteReq misses
system.cpu.dcache.WriteReq_misses::total        69531                       # number of WriteReq misses
system.cpu.dcache.WriteReq_miss_latency::.cpu.data   7745414000                       # number of WriteReq miss cycles
system.cpu.dcache.WriteReq_miss_latency::total   7745414000                       # number of WriteReq miss cycles
system.cpu.dcache.WriteReq_accesses::.cpu.data      1455488                       # number of WriteReq accesses(hits+misses)
system.cpu.dcache.WriteReq_accesses::total      1455488                       # number of WriteReq accesses(hits+misses)
system.cpu.dcache.WriteReq_miss_rate::.cpu.data     0.047772                       # miss rate for WriteReq accesses
system.cpu.dcache.WriteReq_miss_rate::total     0.047772                       # miss rate for WriteReq accesses
system.cpu.dcache.WriteReq_avg_miss_latency::.cpu.data 111395.118724                       # average WriteReq miss latency
system.cpu.dcache.WriteReq_avg_miss_latency::total 111395.118724                       # average WriteReq miss latency
system.cpu.dcache.WriteReq_mshr_hits::.cpu.data        19030                       # number of WriteReq MSHR hits
system.cpu.dcache.WriteReq_mshr_hits::total        19030                       # number of WriteReq MSHR hits
system.cpu.dcache.WriteReq_mshr_misses::.cpu.data        50501                       # number of WriteReq MSHR misses
system.cpu.dcache.WriteReq_mshr_misses::total        50501                       # number of WriteReq MSHR misses
system.cpu.dcache.WriteReq_mshr_miss_latency::.cpu.data   5667190000                       # number of WriteReq MSHR miss cycles
system.cpu.dcache.WriteReq_mshr_miss_latency::total   5667190000                       # number of WriteReq MSHR miss cycles
system.cpu.dcache.WriteReq_mshr_miss_rate::.cpu.data     0.034697                       # mshr miss rate for WriteReq accesses
system.cpu.dcache.WriteReq_mshr_miss_rate::total     0.034697                       # mshr miss rate for WriteReq accesses
system.cpu.dcache.WriteReq_avg_mshr_miss_latency::.cpu.data 112219.361993                       # average WriteReq mshr miss latency
system.cpu.dcache.WriteReq_avg_mshr_miss_latency::total 112219.361993                       # average WriteReq mshr miss latency
system.cpu.dcache.SoftPFReq_hits::.cpu.data          124                       # number of SoftPFReq hits
system.cpu.dcache.SoftPFReq_hits::total           124                       # number of SoftPFReq hits
system.cpu.dcache.SoftPFReq_misses::.cpu.data         1489                       # number of SoftPFReq misses
system.cpu.dcache.SoftPFReq_misses::total         1489                       # number of SoftPFReq misses
system.cpu.dcache.SoftPFReq_accesses::.cpu.data         1613                       # number of SoftPFReq accesses(hits+misses)
system.cpu.dcache.SoftPFReq_accesses::total         1613                       # number of SoftPFReq accesses(hits+misses)
system.cpu.dcache.SoftPFReq_miss_rate::.cpu.data     0.923125                       # miss rate for SoftPFReq accesses
system.cpu.dcache.SoftPFReq_miss_rate::total     0.923125                       # miss rate for SoftPFReq accesses
system.cpu.dcache.SoftPFReq_mshr_misses::.cpu.data          752                       # number of SoftPFReq MSHR misses
system.cpu.dcache.SoftPFReq_mshr_misses::total          752                       # number of SoftPFReq MSHR misses
system.cpu.dcache.SoftPFReq_mshr_miss_latency::.cpu.data     84974000                       # number of SoftPFReq MSHR miss cycles
system.cpu.dcache.SoftPFReq_mshr_miss_latency::total     84974000                       # number of SoftPFReq MSHR miss cycles
system.cpu.dcache.SoftPFReq_mshr_miss_rate::.cpu.data     0.466212                       # mshr miss rate for SoftPFReq accesses
system.cpu.dcache.SoftPFReq_mshr_miss_rate::total     0.466212                       # mshr miss rate for SoftPFReq accesses
system.cpu.dcache.SoftPFReq_avg_mshr_miss_latency::.cpu.data 112997.340426                       # average SoftPFReq mshr miss latency
system.cpu.dcache.SoftPFReq_avg_mshr_miss_latency::total 112997.340426                       # average SoftPFReq mshr miss latency
system.cpu.dcache.LoadLockedReq_hits::.cpu.data           38                       # number of LoadLockedReq hits
system.cpu.dcache.LoadLockedReq_hits::total           38                       # number of LoadLockedReq hits
system.cpu.dcache.LoadLockedReq_accesses::.cpu.data           38                       # number of LoadLockedReq accesses(hits+misses)
system.cpu.dcache.LoadLockedReq_accesses::total           38                       # number of LoadLockedReq accesses(hits+misses)
system.cpu.dcache.StoreCondReq_hits::.cpu.data           38                       # number of StoreCondReq hits
system.cpu.dcache.StoreCondReq_hits::total           38                       # number of StoreCondReq hits
system.cpu.dcache.StoreCondReq_accesses::.cpu.data           38                       # number of StoreCondReq accesses(hits+misses)
system.cpu.dcache.StoreCondReq_accesses::total           38                       # number of StoreCondReq accesses(hits+misses)
system.cpu.dcache.tags.pwrStateResidencyTicks::UNDEFINED  22874042000                       # Cumulative time (in ticks) in various power states
system.cpu.dcache.tags.tagsinuse           940.750138                       # Cycle average of tags in use
system.cpu.dcache.tags.total_refs             7122957                       # Total number of references to valid blocks.
system.cpu.dcache.tags.sampled_refs             80499                       # Sample count of references to valid blocks.
system.cpu.dcache.tags.avg_refs             88.485037                       # Average number of references to valid blocks.
system.cpu.dcache.tags.warmup_cycle            233000                       # Cycle when the warmup percentage was hit.
system.cpu.dcache.tags.occ_blocks::.cpu.data   940.750138                       # Average occupied blocks per requestor
system.cpu.dcache.tags.occ_percent::.cpu.data     0.918701                       # Average percentage of cache occupancy
system.cpu.dcache.tags.occ_percent::total     0.918701                       # Average percentage of cache occupancy
system.cpu.dcache.tags.occ_task_id_blocks::1024         1024                       # Occupied blocks per task id
system.cpu.dcache.tags.age_task_id_blocks_1024::0            1                       # Occupied blocks per task id
system.cpu.dcache.tags.age_task_id_blocks_1024::1            4                       # Occupied blocks per task id
system.cpu.dcache.tags.age_task_id_blocks_1024::2           86                       # Occupied blocks per task id
system.cpu.dcache.tags.age_task_id_blocks_1024::3          864                       # Occupied blocks per task id
system.cpu.dcache.tags.age_task_id_blocks_1024::4           69                       # Occupied blocks per task id
system.cpu.dcache.tags.occ_task_id_percent::1024            1                       # Percentage of cache occupancy per task id
system.cpu.dcache.tags.tag_accesses          14366877                       # Number of tag accesses
system.cpu.dcache.tags.data_accesses         14366877                       # Number of data accesses
system.cpu.itb.walker.pwrStateResidencyTicks::UNDEFINED  22874042000                       # Cumulative time (in ticks) in various power states
system.cpu.itb.stage2_mmu.stage2_tlb.walker.pwrStateResidencyTicks::UNDEFINED  22874042000                       # Cumulative time (in ticks) in various power states

---------- End Simulation Statistics   ----------
