
---------- Begin Simulation Statistics ----------
final_tick                                22781251000                       # Number of ticks from beginning of simulation (restored from checkpoints and never reset)
host_inst_rate                                 175584                       # Simulator instruction rate (inst/s)
host_mem_usage                                 691640                       # Number of bytes of host memory used
host_op_rate                                   176080                       # Simulator op (including micro ops) rate (op/s)
host_seconds                                    56.95                       # Real time elapsed on the host
host_tick_rate                              399999455                       # Simulator tick rate (ticks/s)
sim_freq                                 1000000000000                       # Frequency of simulated ticks
sim_insts                                    10000000                       # Number of instructions simulated
sim_ops                                      10028311                       # Number of ops (including micro ops) simulated
sim_seconds                                  0.022781                       # Number of seconds simulated
sim_ticks                                 22781251000                       # Number of ticks simulated
system.cpu.branchPred.BTBCorrect                    0                       # Number of correct BTB predictions (this stat may not work properly.
system.cpu.branchPred.BTBHitPct             98.803711                       # BTB Hit Percentage
system.cpu.branchPred.BTBHits                  300304                       # Number of BTB hits
system.cpu.branchPred.BTBLookups               303940                       # Number of BTB lookups
system.cpu.branchPred.RASInCorrect                  5                       # Number of incorrect RAS predictions.
system.cpu.branchPred.condIncorrect              7161                       # Number of conditional branches incorrect
system.cpu.branchPred.condPredicted            603863                       # Number of conditional branches predicted
system.cpu.branchPred.indirectHits                127                       # Number of indirect target hits.
system.cpu.branchPred.indirectLookups             398                       # Number of indirect predictor lookups.
system.cpu.branchPred.indirectMisses              271                       # Number of indirect misses.
system.cpu.branchPred.lookups                  716799                       # Number of BP lookups
system.cpu.branchPred.usedRAS                    6948                       # Number of times the RAS was used to get a target.
system.cpu.branchPredindirectMispredicted          171                       # Number of mispredicted indirect branches.
system.cpu.committedInsts                    10000000                       # Number of instructions committed
system.cpu.committedOps                      10028311                       # Number of ops (including micro ops) committed
system.cpu.cpi                               2.278125                       # CPI: cycles per instruction
system.cpu.discardedOps                         15354                       # Number of ops (including micro ops) which were discarded before commit
system.cpu.dtb.accesses                             0                       # DTB accesses
system.cpu.dtb.align_faults                         0                       # Number of TLB faults due to alignment restrictions
system.cpu.dtb.domain_faults                        0                       # Number of TLB faults due to domain restrictions
system.cpu.dtb.flush_entries                        0                       # Number of entries that have been flushed from TLB
system.cpu.dtb.flush_tlb                            0                       # Number of times complete TLB was flushed
system.cpu.dtb.flush_tlb_asid                       0                       # Number of times TLB was flushed by ASID
system.cpu.dtb.flush_tlb_mva                        0                       # Number of times TLB was flushed by MVA
system.cpu.dtb.flush_tlb_mva_asid                   0                       # Number of times TLB was flushed by MVA & ASID
system.cpu.dtb.hits                                 0                       # DTB hits
system.cpu.dtb.inst_accesses                        0                       # ITB inst accesses
system.cpu.dtb.inst_hits                            0                       # ITB inst hits
system.cpu.dtb.inst_misses                          0                       # ITB inst misses
system.cpu.dtb.misses                               0                       # DTB misses
system.cpu.dtb.perms_faults                         0                       # Number of TLB faults due to permissions restrictions
system.cpu.dtb.prefetch_faults                      0                       # Number of TLB faults due to prefetch
system.cpu.dtb.read_accesses                        0                       # DTB read accesses
system.cpu.dtb.read_hits                            0                       # DTB read hits
system.cpu.dtb.read_misses                          0                       # DTB read misses
system.cpu.dtb.stage2_mmu.stage2_tlb.accesses            0                       # DTB accesses
system.cpu.dtb.stage2_mmu.stage2_tlb.align_faults            0                       # Number of TLB faults due to alignment restrictions
system.cpu.dtb.stage2_mmu.stage2_tlb.domain_faults            0                       # Number of TLB faults due to domain restrictions
system.cpu.dtb.stage2_mmu.stage2_tlb.flush_entries            0                       # Number of entries that have been flushed from TLB
system.cpu.dtb.stage2_mmu.stage2_tlb.flush_tlb            0                       # Number of times complete TLB was flushed
system.cpu.dtb.stage2_mmu.stage2_tlb.flush_tlb_asid            0                       # Number of times TLB was flushed by ASID
system.cpu.dtb.stage2_mmu.stage2_tlb.flush_tlb_mva            0                       # Number of times TLB was flushed by MVA
system.cpu.dtb.stage2_mmu.stage2_tlb.flush_tlb_mva_asid            0                       # Number of times TLB was flushed by MVA & ASID
system.cpu.dtb.stage2_mmu.stage2_tlb.hits            0                       # DTB hits
system.cpu.dtb.stage2_mmu.stage2_tlb.inst_accesses            0                       # ITB inst accesses
system.cpu.dtb.stage2_mmu.stage2_tlb.inst_hits            0                       # ITB inst hits
system.cpu.dtb.stage2_mmu.stage2_tlb.inst_misses            0                       # ITB inst misses
system.cpu.dtb.stage2_mmu.stage2_tlb.misses            0                       # DTB misses
system.cpu.dtb.stage2_mmu.stage2_tlb.perms_faults            0                       # Number of TLB faults due to permissions restrictions
system.cpu.dtb.stage2_mmu.stage2_tlb.prefetch_faults            0                       # Number of TLB faults due to prefetch
system.cpu.dtb.stage2_mmu.stage2_tlb.read_accesses            0                       # DTB read accesses
system.cpu.dtb.stage2_mmu.stage2_tlb.read_hits            0                       # DTB read hits
system.cpu.dtb.stage2_mmu.stage2_tlb.read_misses            0                       # DTB read misses
system.cpu.dtb.stage2_mmu.stage2_tlb.walker.walkRequestOrigin_Requested::Data            0                       # Table walker requests started/completed, data/inst
system.cpu.dtb.stage2_mmu.stage2_tlb.walker.walkRequestOrigin_Requested::Inst            0                       # Table walker requests started/completed, data/inst
system.cpu.dtb.stage2_mmu.stage2_tlb.walker.walkRequestOrigin_Requested::total            0                       # Table walker requests started/completed, data/inst
system.cpu.dtb.stage2_mmu.stage2_tlb.walker.walkRequestOrigin_Completed::Data            0                       # Table walker requests started/completed, data/inst
system.cpu.dtb.stage2_mmu.stage2_tlb.walker.walkRequestOrigin_Completed::Inst            0                       # Table walker requests started/completed, data/inst
system.cpu.dtb.stage2_mmu.stage2_tlb.walker.walkRequestOrigin_Completed::total            0                       # Table walker requests started/completed, data/inst
system.cpu.dtb.stage2_mmu.stage2_tlb.walker.walkRequestOrigin::total            0                       # Table walker requests started/completed, data/inst
system.cpu.dtb.stage2_mmu.stage2_tlb.walker.walks            0                       # Table walker walks requested
system.cpu.dtb.stage2_mmu.stage2_tlb.write_accesses            0                       # DTB write accesses
system.cpu.dtb.stage2_mmu.stage2_tlb.write_hits            0                       # DTB write hits
system.cpu.dtb.stage2_mmu.stage2_tlb.write_misses            0                       # DTB write misses
system.cpu.dtb.walker.walkRequestOrigin_Requested::Data            0                       # Table walker requests started/completed, data/inst
system.cpu.dtb.walker.walkRequestOrigin_Requested::Inst            0                       # Table walker requests started/completed, data/inst
system.cpu.dtb.walker.walkRequestOrigin_Requested::total            0                       # Table walker requests started/completed, data/inst
system.cpu.dtb.walker.walkRequestOrigin_Completed::Data            0                       # Table walker requests started/completed, data/inst
system.cpu.dtb.walker.walkRequestOrigin_Completed::Inst            0                       # Table walker requests started/completed, data/inst
system.cpu.dtb.walker.walkRequestOrigin_Completed::total            0                       # Table walker requests started/completed, data/inst
system.cpu.dtb.walker.walkRequestOrigin::total            0                       # Table walker requests started/completed, data/inst
system.cpu.dtb.walker.walks                         0                       # Table walker walks requested
system.cpu.dtb.write_accesses                       0                       # DTB write accesses
system.cpu.dtb.write_hits                           0                       # DTB write hits
system.cpu.dtb.write_misses                         0                       # DTB write misses
system.cpu.fetch2.amo_instructions                  0                       # Number of memory atomic instructions successfully decoded
system.cpu.fetch2.fp_instructions                   0                       # Number of floating point instructions successfully decoded
system.cpu.fetch2.int_instructions            2169346                       # Number of integer instructions successfully decoded
system.cpu.fetch2.load_instructions           5801021                       # Number of memory load instructions successfully decoded
system.cpu.fetch2.store_instructions          1454383                       # Number of memory store instructions successfully decoded
system.cpu.fetch2.vec_instructions                  0                       # Number of SIMD instructions successfully decoded
system.cpu.idleCycles                         8288291                       # Total number of cycles that the object has spent stopped
system.cpu.ipc                               0.438957                       # IPC: instructions per cycle
system.cpu.itb.accesses                             0                       # DTB accesses
system.cpu.itb.align_faults                         0                       # Number of TLB faults due to alignment restrictions
system.cpu.itb.domain_faults                        0                       # Number of TLB faults due to domain restrictions
system.cpu.itb.flush_entries                        0                       # Number of entries that have been flushed from TLB
system.cpu.itb.flush_tlb                            0                       # Number of times complete TLB was flushed
system.cpu.itb.flush_tlb_asid                       0                       # Number of times TLB was flushed by ASID
system.cpu.itb.flush_tlb_mva                        0                       # Number of times TLB was flushed by MVA
system.cpu.itb.flush_tlb_mva_asid                   0                       # Number of times TLB was flushed by MVA & ASID
system.cpu.itb.hits                                 0                       # DTB hits
system.cpu.itb.inst_accesses                        0                       # ITB inst accesses
system.cpu.itb.inst_hits                            0                       # ITB inst hits
system.cpu.itb.inst_misses                          0                       # ITB inst misses
system.cpu.itb.misses                               0                       # DTB misses
system.cpu.itb.perms_faults                         0                       # Number of TLB faults due to permissions restrictions
system.cpu.itb.prefetch_faults                      0                       # Number of TLB faults due to prefetch
system.cpu.itb.read_accesses                        0                       # DTB read accesses
system.cpu.itb.read_hits                            0                       # DTB read hits
system.cpu.itb.read_misses                          0                       # DTB read misses
system.cpu.itb.stage2_mmu.stage2_tlb.accesses            0                       # DTB accesses
system.cpu.itb.stage2_mmu.stage2_tlb.align_faults            0                       # Number of TLB faults due to alignment restrictions
system.cpu.itb.stage2_mmu.stage2_tlb.domain_faults            0                       # Number of TLB faults due to domain restrictions
system.cpu.itb.stage2_mmu.stage2_tlb.flush_entries            0                       # Number of entries that have been flushed from TLB
system.cpu.itb.stage2_mmu.stage2_tlb.flush_tlb            0                       # Number of times complete TLB was flushed
system.cpu.itb.stage2_mmu.stage2_tlb.flush_tlb_asid            0                       # Number of times TLB was flushed by ASID
system.cpu.itb.stage2_mmu.stage2_tlb.flush_tlb_mva            0                       # Number of times TLB was flushed by MVA
system.cpu.itb.stage2_mmu.stage2_tlb.flush_tlb_mva_asid            0                       # Number of times TLB was flushed by MVA & ASID
system.cpu.itb.stage2_mmu.stage2_tlb.hits            0                       # DTB hits
system.cpu.itb.stage2_mmu.stage2_tlb.inst_accesses            0                       # ITB inst accesses
system.cpu.itb.stage2_mmu.stage2_tlb.inst_hits            0                       # ITB inst hits
system.cpu.itb.stage2_mmu.stage2_tlb.inst_misses            0                       # ITB inst misses
system.cpu.itb.stage2_mmu.stage2_tlb.misses            0                       # DTB misses
system.cpu.itb.stage2_mmu.stage2_tlb.perms_faults            0                       # Number of TLB faults due to permissions restrictions
system.cpu.itb.stage2_mmu.stage2_tlb.prefetch_faults            0                       # Number of TLB faults due to prefetch
system.cpu.itb.stage2_mmu.stage2_tlb.read_accesses            0                       # DTB read accesses
system.cpu.itb.stage2_mmu.stage2_tlb.read_hits            0                       # DTB read hits
system.cpu.itb.stage2_mmu.stage2_tlb.read_misses            0                       # DTB read misses
system.cpu.itb.stage2_mmu.stage2_tlb.walker.walkRequestOrigin_Requested::Data            0                       # Table walker requests started/completed, data/inst
system.cpu.itb.stage2_mmu.stage2_tlb.walker.walkRequestOrigin_Requested::Inst            0                       # Table walker requests started/completed, data/inst
system.cpu.itb.stage2_mmu.stage2_tlb.walker.walkRequestOrigin_Requested::total            0                       # Table walker requests started/completed, data/inst
system.cpu.itb.stage2_mmu.stage2_tlb.walker.walkRequestOrigin_Completed::Data            0                       # Table walker requests started/completed, data/inst
system.cpu.itb.stage2_mmu.stage2_tlb.walker.walkRequestOrigin_Completed::Inst            0                       # Table walker requests started/completed, data/inst
system.cpu.itb.stage2_mmu.stage2_tlb.walker.walkRequestOrigin_Completed::total            0                       # Table walker requests started/completed, data/inst
system.cpu.itb.stage2_mmu.stage2_tlb.walker.walkRequestOrigin::total            0                       # Table walker requests started/completed, data/inst
system.cpu.itb.stage2_mmu.stage2_tlb.walker.walks            0                       # Table walker walks requested
system.cpu.itb.stage2_mmu.stage2_tlb.write_accesses            0                       # DTB write accesses
system.cpu.itb.stage2_mmu.stage2_tlb.write_hits            0                       # DTB write hits
system.cpu.itb.stage2_mmu.stage2_tlb.write_misses            0                       # DTB write misses
system.cpu.itb.walker.walkRequestOrigin_Requested::Data            0                       # Table walker requests started/completed, data/inst
system.cpu.itb.walker.walkRequestOrigin_Requested::Inst            0                       # Table walker requests started/completed, data/inst
system.cpu.itb.walker.walkRequestOrigin_Requested::total            0                       # Table walker requests started/completed, data/inst
system.cpu.itb.walker.walkRequestOrigin_Completed::Data            0                       # Table walker requests started/completed, data/inst
system.cpu.itb.walker.walkRequestOrigin_Completed::Inst            0                       # Table walker requests started/completed, data/inst
system.cpu.itb.walker.walkRequestOrigin_Completed::total            0                       # Table walker requests started/completed, data/inst
system.cpu.itb.walker.walkRequestOrigin::total            0                       # Table walker requests started/completed, data/inst
system.cpu.itb.walker.walks                         0                       # Table walker walks requested
system.cpu.itb.write_accesses                       0                       # DTB write accesses
system.cpu.itb.write_hits                           0                       # DTB write hits
system.cpu.itb.write_misses                         0                       # DTB write misses
system.cpu.numCycles                         22781251                       # number of cpu cycles simulated
system.cpu.numFetchSuspends                         0                       # Number of times Execute suspended instruction fetching
system.cpu.numWorkItemsCompleted                    0                       # number of work items this cpu completed
system.cpu.numWorkItemsStarted                      0                       # number of work items this cpu started
system.cpu.op_class_0::No_OpClass                   0      0.00%      0.00% # Class of committed instruction
system.cpu.op_class_0::IntAlu                 2830172     28.22%     28.22% # Class of committed instruction
system.cpu.op_class_0::IntMult                  20549      0.20%     28.43% # Class of committed instruction
system.cpu.op_class_0::IntDiv                       0      0.00%     28.43% # Class of committed instruction
system.cpu.op_class_0::FloatAdd                     0      0.00%     28.43% # Class of committed instruction
system.cpu.op_class_0::FloatCmp                     0      0.00%     28.43% # Class of committed instruction
system.cpu.op_class_0::FloatCvt                     0      0.00%     28.43% # Class of committed instruction
system.cpu.op_class_0::FloatMult                    0      0.00%     28.43% # Class of committed instruction
system.cpu.op_class_0::FloatMultAcc                 0      0.00%     28.43% # Class of committed instruction
system.cpu.op_class_0::FloatDiv                     0      0.00%     28.43% # Class of committed instruction
system.cpu.op_class_0::FloatMisc                    0      0.00%     28.43% # Class of committed instruction
system.cpu.op_class_0::FloatSqrt                    0      0.00%     28.43% # Class of committed instruction
system.cpu.op_class_0::SimdAdd                      0      0.00%     28.43% # Class of committed instruction
system.cpu.op_class_0::SimdAddAcc                   0      0.00%     28.43% # Class of committed instruction
system.cpu.op_class_0::SimdAlu                      0      0.00%     28.43% # Class of committed instruction
system.cpu.op_class_0::SimdCmp                      0      0.00%     28.43% # Class of committed instruction
system.cpu.op_class_0::SimdCvt                      0      0.00%     28.43% # Class of committed instruction
system.cpu.op_class_0::SimdMisc                     0      0.00%     28.43% # Class of committed instruction
system.cpu.op_class_0::SimdMult                     0      0.00%     28.43% # Class of committed instruction
system.cpu.op_class_0::SimdMultAcc                  0      0.00%     28.43% # Class of committed instruction
system.cpu.op_class_0::SimdShift                    0      0.00%     28.43% # Class of committed instruction
system.cpu.op_class_0::SimdShiftAcc                 0      0.00%     28.43% # Class of committed instruction
system.cpu.op_class_0::SimdDiv                      0      0.00%     28.43% # Class of committed instruction
system.cpu.op_class_0::SimdSqrt                     0      0.00%     28.43% # Class of committed instruction
system.cpu.op_class_0::SimdFloatAdd                 0      0.00%     28.43% # Class of committed instruction
system.cpu.op_class_0::SimdFloatAlu                 0      0.00%     28.43% # Class of committed instruction
system.cpu.op_class_0::SimdFloatCmp                 0      0.00%     28.43% # Class of committed instruction
system.cpu.op_class_0::SimdFloatCvt                 0      0.00%     28.43% # Class of committed instruction
system.cpu.op_class_0::SimdFloatDiv                 0      0.00%     28.43% # Class of committed instruction
system.cpu.op_class_0::SimdFloatMisc               18      0.00%     28.43% # Class of committed instruction
system.cpu.op_class_0::SimdFloatMult                0      0.00%     28.43% # Class of committed instruction
system.cpu.op_class_0::SimdFloatMultAcc             0      0.00%     28.43% # Class of committed instruction
system.cpu.op_class_0::SimdFloatSqrt                0      0.00%     28.43% # Class of committed instruction
system.cpu.op_class_0::SimdReduceAdd                0      0.00%     28.43% # Class of committed instruction
system.cpu.op_class_0::SimdReduceAlu                0      0.00%     28.43% # Class of committed instruction
system.cpu.op_class_0::SimdReduceCmp                0      0.00%     28.43% # Class of committed instruction
system.cpu.op_class_0::SimdFloatReduceAdd            0      0.00%     28.43% # Class of committed instruction
system.cpu.op_class_0::SimdFloatReduceCmp            0      0.00%     28.43% # Class of committed instruction
system.cpu.op_class_0::SimdAes                      0      0.00%     28.43% # Class of committed instruction
system.cpu.op_class_0::SimdAesMix                   0      0.00%     28.43% # Class of committed instruction
system.cpu.op_class_0::SimdSha1Hash                 0      0.00%     28.43% # Class of committed instruction
system.cpu.op_class_0::SimdSha1Hash2                0      0.00%     28.43% # Class of committed instruction
system.cpu.op_class_0::SimdSha256Hash               0      0.00%     28.43% # Class of committed instruction
system.cpu.op_class_0::SimdSha256Hash2              0      0.00%     28.43% # Class of committed instruction
system.cpu.op_class_0::SimdShaSigma2                0      0.00%     28.43% # Class of committed instruction
system.cpu.op_class_0::SimdShaSigma3                0      0.00%     28.43% # Class of committed instruction
system.cpu.op_class_0::SimdPredAlu                  0      0.00%     28.43% # Class of committed instruction
system.cpu.op_class_0::MemRead                5721878     57.06%     85.48% # Class of committed instruction
system.cpu.op_class_0::MemWrite               1455694     14.52%    100.00% # Class of committed instruction
system.cpu.op_class_0::FloatMemRead                 0      0.00%    100.00% # Class of committed instruction
system.cpu.op_class_0::FloatMemWrite                0      0.00%    100.00% # Class of committed instruction
system.cpu.op_class_0::IprAccess                    0      0.00%    100.00% # Class of committed instruction
system.cpu.op_class_0::InstPrefetch                 0      0.00%    100.00% # Class of committed instruction
system.cpu.op_class_0::total                 10028311                       # Class of committed instruction
system.cpu.tickCycles                        14492960                       # Number of cycles that the object actually ticked
system.cpu.workload.numSyscalls                    84                       # Number of system calls
system.membus.snoop_filter.hit_multi_requests            0                       # Number of requests hitting in the snoop filter with multiple (>1) holders of the requested data.
system.membus.snoop_filter.hit_multi_snoops            0                       # Number of snoops hitting in the snoop filter with multiple (>1) holders of the requested data.
system.membus.snoop_filter.hit_single_requests        85652                       # Number of requests hitting in the snoop filter with a single holder of the requested data.
system.membus.snoop_filter.hit_single_snoops            0                       # Number of snoops hitting in the snoop filter with a single holder of the requested data.
system.membus.snoop_filter.tot_requests        204406                       # Total number of requests made to the snoop filter.
system.membus.snoop_filter.tot_snoops               0                       # Total number of snoops made to the snoop filter.
system.tol2bus.snoop_filter.hit_multi_requests           42                       # Number of requests hitting in the snoop filter with multiple (>1) holders of the requested data.
system.tol2bus.snoop_filter.hit_multi_snoops            0                       # Number of snoops hitting in the snoop filter with multiple (>1) holders of the requested data.
system.tol2bus.snoop_filter.hit_single_requests       118998                       # Number of requests hitting in the snoop filter with a single holder of the requested data.
system.tol2bus.snoop_filter.hit_single_snoops          375                       # Number of snoops hitting in the snoop filter with a single holder of the requested data.
system.tol2bus.snoop_filter.tot_requests       239452                       # Total number of requests made to the snoop filter.
system.tol2bus.snoop_filter.tot_snoops            375                       # Total number of snoops made to the snoop filter.
system.membus.pwrStateResidencyTicks::UNDEFINED  22781251000                       # Cumulative time (in ticks) in various power states
system.membus.trans_dist::ReadResp              48525                       # Transaction distribution
system.membus.trans_dist::WritebackDirty        57717                       # Transaction distribution
system.membus.trans_dist::CleanEvict            27929                       # Transaction distribution
system.membus.trans_dist::ReadExReq             70235                       # Transaction distribution
system.membus.trans_dist::ReadExResp            70235                       # Transaction distribution
system.membus.trans_dist::ReadSharedReq         48525                       # Transaction distribution
system.membus.pkt_count_system.l2.mem_side::system.mem_ctrls.port       323166                       # Packet count per connected master and slave (bytes)
system.membus.pkt_count::total                 323166                       # Packet count per connected master and slave (bytes)
system.membus.pkt_size_system.l2.mem_side::system.mem_ctrls.port     11294528                       # Cumulative packet size per connected master and slave (bytes)
system.membus.pkt_size::total                11294528                       # Cumulative packet size per connected master and slave (bytes)
system.membus.snoops                                0                       # Total snoops (count)
system.membus.snoopTraffic                          0                       # Total snoop traffic (bytes)
system.membus.snoop_fanout::samples            118760                       # Request fanout histogram
system.membus.snoop_fanout::mean                    0                       # Request fanout histogram
system.membus.snoop_fanout::stdev                   0                       # Request fanout histogram
system.membus.snoop_fanout::underflows              0      0.00%      0.00% # Request fanout histogram
system.membus.snoop_fanout::0                  118760    100.00%    100.00% # Request fanout histogram
system.membus.snoop_fanout::1                       0      0.00%    100.00% # Request fanout histogram
system.membus.snoop_fanout::overflows               0      0.00%    100.00% # Request fanout histogram
system.membus.snoop_fanout::min_value               0                       # Request fanout histogram
system.membus.snoop_fanout::max_value               0                       # Request fanout histogram
system.membus.snoop_fanout::total              118760                       # Request fanout histogram
system.membus.respLayer1.occupancy          638112500                       # Layer occupancy (ticks)
system.membus.respLayer1.utilization              2.8                       # Layer utilization (%)
system.membus.reqLayer0.occupancy           435274000                       # Layer occupancy (ticks)
system.membus.reqLayer0.utilization               1.9                       # Layer utilization (%)
system.tol2bus.pwrStateResidencyTicks::UNDEFINED  22781251000                       # Cumulative time (in ticks) in various power states
system.tol2bus.trans_dist::ReadResp             50213                       # Transaction distribution
system.tol2bus.trans_dist::WritebackDirty       128162                       # Transaction distribution
system.tol2bus.trans_dist::WritebackClean          104                       # Transaction distribution
system.tol2bus.trans_dist::CleanEvict           76745                       # Transaction distribution
system.tol2bus.trans_dist::ReadExReq            70249                       # Transaction distribution
system.tol2bus.trans_dist::ReadExResp           70249                       # Transaction distribution
system.tol2bus.trans_dist::ReadCleanReq           552                       # Transaction distribution
system.tol2bus.trans_dist::ReadSharedReq        49661                       # Transaction distribution
system.tol2bus.pkt_count_system.cpu.icache.mem_side::system.l2.cpu_side         1208                       # Packet count per connected master and slave (bytes)
system.tol2bus.pkt_count_system.cpu.dcache.mem_side::system.l2.cpu_side       358706                       # Packet count per connected master and slave (bytes)
system.tol2bus.pkt_count::total                359914                       # Packet count per connected master and slave (bytes)
system.tol2bus.pkt_size_system.cpu.icache.mem_side::system.l2.cpu_side        41984                       # Cumulative packet size per connected master and slave (bytes)
system.tol2bus.pkt_size_system.cpu.dcache.mem_side::system.l2.cpu_side     12182720                       # Cumulative packet size per connected master and slave (bytes)
system.tol2bus.pkt_size::total               12224704                       # Cumulative packet size per connected master and slave (bytes)
system.tol2bus.snoops                           86021                       # Total snoops (count)
system.tol2bus.snoopTraffic                   3693888                       # Total snoop traffic (bytes)
system.tol2bus.snoop_fanout::samples           206483                       # Request fanout histogram
system.tol2bus.snoop_fanout::mean            0.002058                       # Request fanout histogram
system.tol2bus.snoop_fanout::stdev           0.045322                       # Request fanout histogram
system.tol2bus.snoop_fanout::underflows             0      0.00%      0.00% # Request fanout histogram
system.tol2bus.snoop_fanout::0                 206058     99.79%     99.79% # Request fanout histogram
system.tol2bus.snoop_fanout::1                    425      0.21%    100.00% # Request fanout histogram
system.tol2bus.snoop_fanout::2                      0      0.00%    100.00% # Request fanout histogram
system.tol2bus.snoop_fanout::overflows              0      0.00%    100.00% # Request fanout histogram
system.tol2bus.snoop_fanout::min_value              0                       # Request fanout histogram
system.tol2bus.snoop_fanout::max_value              1                       # Request fanout histogram
system.tol2bus.snoop_fanout::total             206483                       # Request fanout histogram
system.tol2bus.reqLayer0.occupancy          380550000                       # Layer occupancy (ticks)
system.tol2bus.reqLayer0.utilization              1.7                       # Layer utilization (%)
system.tol2bus.respLayer1.occupancy         359733996                       # Layer occupancy (ticks)
system.tol2bus.respLayer1.utilization             1.6                       # Layer utilization (%)
system.tol2bus.respLayer0.occupancy           1656000                       # Layer occupancy (ticks)
system.tol2bus.respLayer0.utilization             0.0                       # Layer utilization (%)
system.voltage_domain.voltage                       1                       # Voltage in Volts
system.clk_domain.clock                          1000                       # Clock period in ticks
system.l2.pwrStateResidencyTicks::UNDEFINED  22781251000                       # Cumulative time (in ticks) in various power states
system.l2.demand_hits::.cpu.inst                   34                       # number of demand (read+write) hits
system.l2.demand_hits::.cpu.data                 1664                       # number of demand (read+write) hits
system.l2.demand_hits::total                     1698                       # number of demand (read+write) hits
system.l2.overall_hits::.cpu.inst                  34                       # number of overall hits
system.l2.overall_hits::.cpu.data                1664                       # number of overall hits
system.l2.overall_hits::total                    1698                       # number of overall hits
system.l2.demand_misses::.cpu.inst                518                       # number of demand (read+write) misses
system.l2.demand_misses::.cpu.data             118246                       # number of demand (read+write) misses
system.l2.demand_misses::total                 118764                       # number of demand (read+write) misses
system.l2.overall_misses::.cpu.inst               518                       # number of overall misses
system.l2.overall_misses::.cpu.data            118246                       # number of overall misses
system.l2.overall_misses::total                118764                       # number of overall misses
system.l2.demand_miss_latency::.cpu.inst     50517000                       # number of demand (read+write) miss cycles
system.l2.demand_miss_latency::.cpu.data  12015016000                       # number of demand (read+write) miss cycles
system.l2.demand_miss_latency::total      12065533000                       # number of demand (read+write) miss cycles
system.l2.overall_miss_latency::.cpu.inst     50517000                       # number of overall miss cycles
system.l2.overall_miss_latency::.cpu.data  12015016000                       # number of overall miss cycles
system.l2.overall_miss_latency::total     12065533000                       # number of overall miss cycles
system.l2.demand_accesses::.cpu.inst              552                       # number of demand (read+write) accesses
system.l2.demand_accesses::.cpu.data           119910                       # number of demand (read+write) accesses
system.l2.demand_accesses::total               120462                       # number of demand (read+write) accesses
system.l2.overall_accesses::.cpu.inst             552                       # number of overall (read+write) accesses
system.l2.overall_accesses::.cpu.data          119910                       # number of overall (read+write) accesses
system.l2.overall_accesses::total              120462                       # number of overall (read+write) accesses
system.l2.demand_miss_rate::.cpu.inst        0.938406                       # miss rate for demand accesses
system.l2.demand_miss_rate::.cpu.data        0.986123                       # miss rate for demand accesses
system.l2.demand_miss_rate::total            0.985904                       # miss rate for demand accesses
system.l2.overall_miss_rate::.cpu.inst       0.938406                       # miss rate for overall accesses
system.l2.overall_miss_rate::.cpu.data       0.986123                       # miss rate for overall accesses
system.l2.overall_miss_rate::total           0.985904                       # miss rate for overall accesses
system.l2.demand_avg_miss_latency::.cpu.inst 97523.166023                       # average overall miss latency
system.l2.demand_avg_miss_latency::.cpu.data 101610.337770                       # average overall miss latency
system.l2.demand_avg_miss_latency::total 101592.511199                       # average overall miss latency
system.l2.overall_avg_miss_latency::.cpu.inst 97523.166023                       # average overall miss latency
system.l2.overall_avg_miss_latency::.cpu.data 101610.337770                       # average overall miss latency
system.l2.overall_avg_miss_latency::total 101592.511199                       # average overall miss latency
system.l2.blocked_cycles::no_mshrs                  0                       # number of cycles access was blocked
system.l2.blocked_cycles::no_targets                0                       # number of cycles access was blocked
system.l2.blocked::no_mshrs                         0                       # number of cycles access was blocked
system.l2.blocked::no_targets                       0                       # number of cycles access was blocked
system.l2.avg_blocked_cycles::no_mshrs            nan                       # average number of cycles each access was blocked
system.l2.avg_blocked_cycles::no_targets          nan                       # average number of cycles each access was blocked
system.l2.writebacks::.writebacks               57717                       # number of writebacks
system.l2.writebacks::total                     57717                       # number of writebacks
system.l2.demand_mshr_hits::.cpu.data               4                       # number of demand (read+write) MSHR hits
system.l2.demand_mshr_hits::total                   4                       # number of demand (read+write) MSHR hits
system.l2.overall_mshr_hits::.cpu.data              4                       # number of overall MSHR hits
system.l2.overall_mshr_hits::total                  4                       # number of overall MSHR hits
system.l2.demand_mshr_misses::.cpu.inst           518                       # number of demand (read+write) MSHR misses
system.l2.demand_mshr_misses::.cpu.data        118242                       # number of demand (read+write) MSHR misses
system.l2.demand_mshr_misses::total            118760                       # number of demand (read+write) MSHR misses
system.l2.overall_mshr_misses::.cpu.inst          518                       # number of overall MSHR misses
system.l2.overall_mshr_misses::.cpu.data       118242                       # number of overall MSHR misses
system.l2.overall_mshr_misses::total           118760                       # number of overall MSHR misses
system.l2.demand_mshr_miss_latency::.cpu.inst     40157000                       # number of demand (read+write) MSHR miss cycles
system.l2.demand_mshr_miss_latency::.cpu.data   9649886000                       # number of demand (read+write) MSHR miss cycles
system.l2.demand_mshr_miss_latency::total   9690043000                       # number of demand (read+write) MSHR miss cycles
system.l2.overall_mshr_miss_latency::.cpu.inst     40157000                       # number of overall MSHR miss cycles
system.l2.overall_mshr_miss_latency::.cpu.data   9649886000                       # number of overall MSHR miss cycles
system.l2.overall_mshr_miss_latency::total   9690043000                       # number of overall MSHR miss cycles
system.l2.demand_mshr_miss_rate::.cpu.inst     0.938406                       # mshr miss rate for demand accesses
system.l2.demand_mshr_miss_rate::.cpu.data     0.986090                       # mshr miss rate for demand accesses
system.l2.demand_mshr_miss_rate::total       0.985871                       # mshr miss rate for demand accesses
system.l2.overall_mshr_miss_rate::.cpu.inst     0.938406                       # mshr miss rate for overall accesses
system.l2.overall_mshr_miss_rate::.cpu.data     0.986090                       # mshr miss rate for overall accesses
system.l2.overall_mshr_miss_rate::total      0.985871                       # mshr miss rate for overall accesses
system.l2.demand_avg_mshr_miss_latency::.cpu.inst 77523.166023                       # average overall mshr miss latency
system.l2.demand_avg_mshr_miss_latency::.cpu.data 81611.322542                       # average overall mshr miss latency
system.l2.demand_avg_mshr_miss_latency::total 81593.491074                       # average overall mshr miss latency
system.l2.overall_avg_mshr_miss_latency::.cpu.inst 77523.166023                       # average overall mshr miss latency
system.l2.overall_avg_mshr_miss_latency::.cpu.data 81611.322542                       # average overall mshr miss latency
system.l2.overall_avg_mshr_miss_latency::total 81593.491074                       # average overall mshr miss latency
system.l2.replacements                          86021                       # number of replacements
system.l2.WritebackDirty_hits::.writebacks        70445                       # number of WritebackDirty hits
system.l2.WritebackDirty_hits::total            70445                       # number of WritebackDirty hits
system.l2.WritebackDirty_accesses::.writebacks        70445                       # number of WritebackDirty accesses(hits+misses)
system.l2.WritebackDirty_accesses::total        70445                       # number of WritebackDirty accesses(hits+misses)
system.l2.WritebackClean_hits::.writebacks           98                       # number of WritebackClean hits
system.l2.WritebackClean_hits::total               98                       # number of WritebackClean hits
system.l2.WritebackClean_accesses::.writebacks           98                       # number of WritebackClean accesses(hits+misses)
system.l2.WritebackClean_accesses::total           98                       # number of WritebackClean accesses(hits+misses)
system.l2.ReadExReq_hits::.cpu.data                14                       # number of ReadExReq hits
system.l2.ReadExReq_hits::total                    14                       # number of ReadExReq hits
system.l2.ReadExReq_misses::.cpu.data           70235                       # number of ReadExReq misses
system.l2.ReadExReq_misses::total               70235                       # number of ReadExReq misses
system.l2.ReadExReq_miss_latency::.cpu.data   7336592000                       # number of ReadExReq miss cycles
system.l2.ReadExReq_miss_latency::total    7336592000                       # number of ReadExReq miss cycles
system.l2.ReadExReq_accesses::.cpu.data         70249                       # number of ReadExReq accesses(hits+misses)
system.l2.ReadExReq_accesses::total             70249                       # number of ReadExReq accesses(hits+misses)
system.l2.ReadExReq_miss_rate::.cpu.data     0.999801                       # miss rate for ReadExReq accesses
system.l2.ReadExReq_miss_rate::total         0.999801                       # miss rate for ReadExReq accesses
system.l2.ReadExReq_avg_miss_latency::.cpu.data 104457.777461                       # average ReadExReq miss latency
system.l2.ReadExReq_avg_miss_latency::total 104457.777461                       # average ReadExReq miss latency
system.l2.ReadExReq_mshr_misses::.cpu.data        70235                       # number of ReadExReq MSHR misses
system.l2.ReadExReq_mshr_misses::total          70235                       # number of ReadExReq MSHR misses
system.l2.ReadExReq_mshr_miss_latency::.cpu.data   5931892000                       # number of ReadExReq MSHR miss cycles
system.l2.ReadExReq_mshr_miss_latency::total   5931892000                       # number of ReadExReq MSHR miss cycles
system.l2.ReadExReq_mshr_miss_rate::.cpu.data     0.999801                       # mshr miss rate for ReadExReq accesses
system.l2.ReadExReq_mshr_miss_rate::total     0.999801                       # mshr miss rate for ReadExReq accesses
system.l2.ReadExReq_avg_mshr_miss_latency::.cpu.data 84457.777461                       # average ReadExReq mshr miss latency
system.l2.ReadExReq_avg_mshr_miss_latency::total 84457.777461                       # average ReadExReq mshr miss latency
system.l2.ReadCleanReq_hits::.cpu.inst             34                       # number of ReadCleanReq hits
system.l2.ReadCleanReq_hits::total                 34                       # number of ReadCleanReq hits
system.l2.ReadCleanReq_misses::.cpu.inst          518                       # number of ReadCleanReq misses
system.l2.ReadCleanReq_misses::total              518                       # number of ReadCleanReq misses
system.l2.ReadCleanReq_miss_latency::.cpu.inst     50517000                       # number of ReadCleanReq miss cycles
system.l2.ReadCleanReq_miss_latency::total     50517000                       # number of ReadCleanReq miss cycles
system.l2.ReadCleanReq_accesses::.cpu.inst          552                       # number of ReadCleanReq accesses(hits+misses)
system.l2.ReadCleanReq_accesses::total            552                       # number of ReadCleanReq accesses(hits+misses)
system.l2.ReadCleanReq_miss_rate::.cpu.inst     0.938406                       # miss rate for ReadCleanReq accesses
system.l2.ReadCleanReq_miss_rate::total      0.938406                       # miss rate for ReadCleanReq accesses
system.l2.ReadCleanReq_avg_miss_latency::.cpu.inst 97523.166023                       # average ReadCleanReq miss latency
system.l2.ReadCleanReq_avg_miss_latency::total 97523.166023                       # average ReadCleanReq miss latency
system.l2.ReadCleanReq_mshr_misses::.cpu.inst          518                       # number of ReadCleanReq MSHR misses
system.l2.ReadCleanReq_mshr_misses::total          518                       # number of ReadCleanReq MSHR misses
system.l2.ReadCleanReq_mshr_miss_latency::.cpu.inst     40157000                       # number of ReadCleanReq MSHR miss cycles
system.l2.ReadCleanReq_mshr_miss_latency::total     40157000                       # number of ReadCleanReq MSHR miss cycles
system.l2.ReadCleanReq_mshr_miss_rate::.cpu.inst     0.938406                       # mshr miss rate for ReadCleanReq accesses
system.l2.ReadCleanReq_mshr_miss_rate::total     0.938406                       # mshr miss rate for ReadCleanReq accesses
system.l2.ReadCleanReq_avg_mshr_miss_latency::.cpu.inst 77523.166023                       # average ReadCleanReq mshr miss latency
system.l2.ReadCleanReq_avg_mshr_miss_latency::total 77523.166023                       # average ReadCleanReq mshr miss latency
system.l2.ReadSharedReq_hits::.cpu.data          1650                       # number of ReadSharedReq hits
system.l2.ReadSharedReq_hits::total              1650                       # number of ReadSharedReq hits
system.l2.ReadSharedReq_misses::.cpu.data        48011                       # number of ReadSharedReq misses
system.l2.ReadSharedReq_misses::total           48011                       # number of ReadSharedReq misses
system.l2.ReadSharedReq_miss_latency::.cpu.data   4678424000                       # number of ReadSharedReq miss cycles
system.l2.ReadSharedReq_miss_latency::total   4678424000                       # number of ReadSharedReq miss cycles
system.l2.ReadSharedReq_accesses::.cpu.data        49661                       # number of ReadSharedReq accesses(hits+misses)
system.l2.ReadSharedReq_accesses::total         49661                       # number of ReadSharedReq accesses(hits+misses)
system.l2.ReadSharedReq_miss_rate::.cpu.data     0.966775                       # miss rate for ReadSharedReq accesses
system.l2.ReadSharedReq_miss_rate::total     0.966775                       # miss rate for ReadSharedReq accesses
system.l2.ReadSharedReq_avg_miss_latency::.cpu.data 97444.835559                       # average ReadSharedReq miss latency
system.l2.ReadSharedReq_avg_miss_latency::total 97444.835559                       # average ReadSharedReq miss latency
system.l2.ReadSharedReq_mshr_hits::.cpu.data            4                       # number of ReadSharedReq MSHR hits
system.l2.ReadSharedReq_mshr_hits::total            4                       # number of ReadSharedReq MSHR hits
system.l2.ReadSharedReq_mshr_misses::.cpu.data        48007                       # number of ReadSharedReq MSHR misses
system.l2.ReadSharedReq_mshr_misses::total        48007                       # number of ReadSharedReq MSHR misses
system.l2.ReadSharedReq_mshr_miss_latency::.cpu.data   3717994000                       # number of ReadSharedReq MSHR miss cycles
system.l2.ReadSharedReq_mshr_miss_latency::total   3717994000                       # number of ReadSharedReq MSHR miss cycles
system.l2.ReadSharedReq_mshr_miss_rate::.cpu.data     0.966694                       # mshr miss rate for ReadSharedReq accesses
system.l2.ReadSharedReq_mshr_miss_rate::total     0.966694                       # mshr miss rate for ReadSharedReq accesses
system.l2.ReadSharedReq_avg_mshr_miss_latency::.cpu.data 77446.913992                       # average ReadSharedReq mshr miss latency
system.l2.ReadSharedReq_avg_mshr_miss_latency::total 77446.913992                       # average ReadSharedReq mshr miss latency
system.l2.tags.pwrStateResidencyTicks::UNDEFINED  22781251000                       # Cumulative time (in ticks) in various power states
system.l2.tags.tagsinuse                 28466.004057                       # Cycle average of tags in use
system.l2.tags.total_refs                      239406                       # Total number of references to valid blocks.
system.l2.tags.sampled_refs                    118789                       # Sample count of references to valid blocks.
system.l2.tags.avg_refs                      2.015389                       # Average number of references to valid blocks.
system.l2.tags.warmup_cycle                     87000                       # Cycle when the warmup percentage was hit.
system.l2.tags.occ_blocks::.writebacks      17.778439                       # Average occupied blocks per requestor
system.l2.tags.occ_blocks::.cpu.inst       122.575686                       # Average occupied blocks per requestor
system.l2.tags.occ_blocks::.cpu.data     28325.649932                       # Average occupied blocks per requestor
system.l2.tags.occ_percent::.writebacks      0.000543                       # Average percentage of cache occupancy
system.l2.tags.occ_percent::.cpu.inst        0.003741                       # Average percentage of cache occupancy
system.l2.tags.occ_percent::.cpu.data        0.864430                       # Average percentage of cache occupancy
system.l2.tags.occ_percent::total            0.868714                       # Average percentage of cache occupancy
system.l2.tags.occ_task_id_blocks::1024         32768                       # Occupied blocks per task id
system.l2.tags.age_task_id_blocks_1024::0            1                       # Occupied blocks per task id
system.l2.tags.age_task_id_blocks_1024::1            9                       # Occupied blocks per task id
system.l2.tags.age_task_id_blocks_1024::2          166                       # Occupied blocks per task id
system.l2.tags.age_task_id_blocks_1024::3         1812                       # Occupied blocks per task id
system.l2.tags.age_task_id_blocks_1024::4        30780                       # Occupied blocks per task id
system.l2.tags.occ_task_id_percent::1024            1                       # Percentage of cache occupancy per task id
system.l2.tags.tag_accesses                   2034069                       # Number of tag accesses
system.l2.tags.data_accesses                  2034069                       # Number of data accesses
system.cpu_voltage_domain.voltage                   1                       # Voltage in Volts
system.mem_ctrls.pwrStateResidencyTicks::UNDEFINED  22781251000                       # Cumulative time (in ticks) in various power states
system.mem_ctrls.bytes_read::.cpu.inst          33152                       # Number of bytes read from this memory
system.mem_ctrls.bytes_read::.cpu.data        7567488                       # Number of bytes read from this memory
system.mem_ctrls.bytes_read::total            7600640                       # Number of bytes read from this memory
system.mem_ctrls.bytes_inst_read::.cpu.inst        33152                       # Number of instructions bytes read from this memory
system.mem_ctrls.bytes_inst_read::total         33152                       # Number of instructions bytes read from this memory
system.mem_ctrls.bytes_written::.writebacks      3693888                       # Number of bytes written to this memory
system.mem_ctrls.bytes_written::total         3693888                       # Number of bytes written to this memory
system.mem_ctrls.num_reads::.cpu.inst             518                       # Number of read requests responded to by this memory
system.mem_ctrls.num_reads::.cpu.data          118242                       # Number of read requests responded to by this memory
system.mem_ctrls.num_reads::total              118760                       # Number of read requests responded to by this memory
system.mem_ctrls.num_writes::.writebacks        57717                       # Number of write requests responded to by this memory
system.mem_ctrls.num_writes::total              57717                       # Number of write requests responded to by this memory
system.mem_ctrls.bw_read::.cpu.inst           1455232                       # Total read bandwidth from this memory (bytes/s)
system.mem_ctrls.bw_read::.cpu.data         332180529                       # Total read bandwidth from this memory (bytes/s)
system.mem_ctrls.bw_read::total             333635760                       # Total read bandwidth from this memory (bytes/s)
system.mem_ctrls.bw_inst_read::.cpu.inst      1455232                       # Instruction read bandwidth from this memory (bytes/s)
system.mem_ctrls.bw_inst_read::total          1455232                       # Instruction read bandwidth from this memory (bytes/s)
system.mem_ctrls.bw_write::.writebacks      162145968                       # Write bandwidth from this memory (bytes/s)
system.mem_ctrls.bw_write::total            162145968                       # Write bandwidth from this memory (bytes/s)
system.mem_ctrls.bw_total::.writebacks      162145968                       # Total bandwidth to/from this memory (bytes/s)
system.mem_ctrls.bw_total::.cpu.inst          1455232                       # Total bandwidth to/from this memory (bytes/s)
system.mem_ctrls.bw_total::.cpu.data        332180529                       # Total bandwidth to/from this memory (bytes/s)
system.mem_ctrls.bw_total::total            495781729                       # Total bandwidth to/from this memory (bytes/s)
system.mem_ctrls.avgPriority_.writebacks::samples     57717.00                       # Average QoS priority value for accepted requests
system.mem_ctrls.avgPriority_.cpu.inst::samples       518.00                       # Average QoS priority value for accepted requests
system.mem_ctrls.avgPriority_.cpu.data::samples    118242.00                       # Average QoS priority value for accepted requests
system.mem_ctrls.priorityMinLatency      0.000000018750                       # per QoS priority minimum request to response latency (s)
system.mem_ctrls.priorityMaxLatency      0.002239746500                       # per QoS priority maximum request to response latency (s)
system.mem_ctrls.numReadWriteTurnArounds         3586                       # Number of turnarounds from READ to WRITE
system.mem_ctrls.numWriteReadTurnArounds         3586                       # Number of turnarounds from WRITE to READ
system.mem_ctrls.numStayReadState              293869                       # Number of times bus staying in READ state
system.mem_ctrls.numStayWriteState              54217                       # Number of times bus staying in WRITE state
system.mem_ctrls.readReqs                      118760                       # Number of read requests accepted
system.mem_ctrls.writeReqs                      57717                       # Number of write requests accepted
system.mem_ctrls.readBursts                    118760                       # Number of DRAM read bursts, including those serviced by the write queue
system.mem_ctrls.writeBursts                    57717                       # Number of DRAM write bursts, including those merged in the write queue
system.mem_ctrls.servicedByWrQ                      0                       # Number of DRAM read bursts serviced by the write queue
system.mem_ctrls.mergedWrBursts                     0                       # Number of DRAM write bursts merged with an existing one
system.mem_ctrls.neitherReadNorWriteReqs            0                       # Number of requests that are neither read nor write
system.mem_ctrls.perBankRdBursts::0              7595                       # Per bank write bursts
system.mem_ctrls.perBankRdBursts::1              7489                       # Per bank write bursts
system.mem_ctrls.perBankRdBursts::2              7493                       # Per bank write bursts
system.mem_ctrls.perBankRdBursts::3              7391                       # Per bank write bursts
system.mem_ctrls.perBankRdBursts::4              7476                       # Per bank write bursts
system.mem_ctrls.perBankRdBursts::5              7405                       # Per bank write bursts
system.mem_ctrls.perBankRdBursts::6              7386                       # Per bank write bursts
system.mem_ctrls.perBankRdBursts::7              7579                       # Per bank write bursts
system.mem_ctrls.perBankRdBursts::8              7390                       # Per bank write bursts
system.mem_ctrls.perBankRdBursts::9              7318                       # Per bank write bursts
system.mem_ctrls.perBankRdBursts::10             7362                       # Per bank write bursts
system.mem_ctrls.perBankRdBursts::11             7321                       # Per bank write bursts
system.mem_ctrls.perBankRdBursts::12             7420                       # Per bank write bursts
system.mem_ctrls.perBankRdBursts::13             7382                       # Per bank write bursts
system.mem_ctrls.perBankRdBursts::14             7336                       # Per bank write bursts
system.mem_ctrls.perBankRdBursts::15             7417                       # Per bank write bursts
system.mem_ctrls.perBankWrBursts::0              3674                       # Per bank write bursts
system.mem_ctrls.perBankWrBursts::1              3667                       # Per bank write bursts
system.mem_ctrls.perBankWrBursts::2              3684                       # Per bank write bursts
system.mem_ctrls.perBankWrBursts::3              3654                       # Per bank write bursts
system.mem_ctrls.perBankWrBursts::4              3661                       # Per bank write bursts
system.mem_ctrls.perBankWrBursts::5              3640                       # Per bank write bursts
system.mem_ctrls.perBankWrBursts::6              3603                       # Per bank write bursts
system.mem_ctrls.perBankWrBursts::7              3624                       # Per bank write bursts
system.mem_ctrls.perBankWrBursts::8              3589                       # Per bank write bursts
system.mem_ctrls.perBankWrBursts::9              3545                       # Per bank write bursts
system.mem_ctrls.perBankWrBursts::10             3579                       # Per bank write bursts
system.mem_ctrls.perBankWrBursts::11             3563                       # Per bank write bursts
system.mem_ctrls.perBankWrBursts::12             3579                       # Per bank write bursts
system.mem_ctrls.perBankWrBursts::13             3542                       # Per bank write bursts
system.mem_ctrls.perBankWrBursts::14             3529                       # Per bank write bursts
system.mem_ctrls.perBankWrBursts::15             3567                       # Per bank write bursts
system.mem_ctrls.avgRdQLen                       1.26                       # Average read queue length when enqueuing
system.mem_ctrls.avgWrQLen                      24.75                       # Average write queue length when enqueuing
system.mem_ctrls.totQLat                   1359538750                       # Total ticks spent queuing
system.mem_ctrls.totBusLat                  593800000                       # Total ticks spent in databus transfers
system.mem_ctrls.totMemAccLat              3586288750                       # Total ticks spent from burst creation until serviced by the DRAM
system.mem_ctrls.avgQLat                     11447.78                       # Average queueing delay per DRAM burst
system.mem_ctrls.avgBusLat                    5000.00                       # Average bus latency per DRAM burst
system.mem_ctrls.avgMemAccLat                30197.78                       # Average memory access latency per DRAM burst
system.mem_ctrls.numRdRetry                         0                       # Number of times read queue was full causing retry
system.mem_ctrls.numWrRetry                         0                       # Number of times write queue was full causing retry
system.mem_ctrls.readRowHits                   105494                       # Number of row buffer hits during reads
system.mem_ctrls.writeRowHits                   49983                       # Number of row buffer hits during writes
system.mem_ctrls.readRowHitRate                 88.83                       # Row buffer hit rate for reads
system.mem_ctrls.writeRowHitRate                86.60                       # Row buffer hit rate for writes
system.mem_ctrls.readPktSize::0                     0                       # Read request sizes (log2)
system.mem_ctrls.readPktSize::1                     0                       # Read request sizes (log2)
system.mem_ctrls.readPktSize::2                     0                       # Read request sizes (log2)
system.mem_ctrls.readPktSize::3                     0                       # Read request sizes (log2)
system.mem_ctrls.readPktSize::4                     0                       # Read request sizes (log2)
system.mem_ctrls.readPktSize::5                     0                       # Read request sizes (log2)
system.mem_ctrls.readPktSize::6                118760                       # Read request sizes (log2)
system.mem_ctrls.writePktSize::0                    0                       # Write request sizes (log2)
system.mem_ctrls.writePktSize::1                    0                       # Write request sizes (log2)
system.mem_ctrls.writePktSize::2                    0                       # Write request sizes (log2)
system.mem_ctrls.writePktSize::3                    0                       # Write request sizes (log2)
system.mem_ctrls.writePktSize::4                    0                       # Write request sizes (log2)
system.mem_ctrls.writePktSize::5                    0                       # Write request sizes (log2)
system.mem_ctrls.writePktSize::6                57717                       # Write request sizes (log2)
system.mem_ctrls.rdQLenPdf::0                   74875                       # What read queue length does an incoming req see
system.mem_ctrls.rdQLenPdf::1                   43783                       # What read queue length does an incoming req see
system.mem_ctrls.rdQLenPdf::2                      65                       # What read queue length does an incoming req see
system.mem_ctrls.rdQLenPdf::3                      36                       # What read queue length does an incoming req see
system.mem_ctrls.rdQLenPdf::4                       1                       # What read queue length does an incoming req see
system.mem_ctrls.rdQLenPdf::5                       0                       # What read queue length does an incoming req see
system.mem_ctrls.rdQLenPdf::6                       0                       # What read queue length does an incoming req see
system.mem_ctrls.rdQLenPdf::7                       0                       # What read queue length does an incoming req see
system.mem_ctrls.rdQLenPdf::8                       0                       # What read queue length does an incoming req see
system.mem_ctrls.rdQLenPdf::9                       0                       # What read queue length does an incoming req see
system.mem_ctrls.rdQLenPdf::10                      0                       # What read queue length does an incoming req see
system.mem_ctrls.rdQLenPdf::11                      0                       # What read queue length does an incoming req see
system.mem_ctrls.rdQLenPdf::12                      0                       # What read queue length does an incoming req see
system.mem_ctrls.rdQLenPdf::13                      0                       # What read queue length does an incoming req see
system.mem_ctrls.rdQLenPdf::14                      0                       # What read queue length does an incoming req see
system.mem_ctrls.rdQLenPdf::15                      0                       # What read queue length does an incoming req see
system.mem_ctrls.rdQLenPdf::16                      0                       # What read queue length does an incoming req see
system.mem_ctrls.rdQLenPdf::17                      0                       # What read queue length does an incoming req see
system.mem_ctrls.rdQLenPdf::18                      0                       # What read queue length does an incoming req see
system.mem_ctrls.rdQLenPdf::19                      0                       # What read queue length does an incoming req see
system.mem_ctrls.rdQLenPdf::20                      0                       # What read queue length does an incoming req see
system.mem_ctrls.rdQLenPdf::21                      0                       # What read queue length does an incoming req see
system.mem_ctrls.rdQLenPdf::22                      0                       # What read queue length does an incoming req see
system.mem_ctrls.rdQLenPdf::23                      0                       # What read queue length does an incoming req see
system.mem_ctrls.rdQLenPdf::24                      0                       # What read queue length does an incoming req see
system.mem_ctrls.rdQLenPdf::25                      0                       # What read queue length does an incoming req see
system.mem_ctrls.rdQLenPdf::26                      0                       # What read queue length does an incoming req see
system.mem_ctrls.rdQLenPdf::27                      0                       # What read queue length does an incoming req see
system.mem_ctrls.rdQLenPdf::28                      0                       # What read queue length does an incoming req see
system.mem_ctrls.rdQLenPdf::29                      0                       # What read queue length does an incoming req see
system.mem_ctrls.rdQLenPdf::30                      0                       # What read queue length does an incoming req see
system.mem_ctrls.rdQLenPdf::31                      0                       # What read queue length does an incoming req see
system.mem_ctrls.wrQLenPdf::0                       1                       # What write queue length does an incoming req see
system.mem_ctrls.wrQLenPdf::1                       1                       # What write queue length does an incoming req see
system.mem_ctrls.wrQLenPdf::2                       1                       # What write queue length does an incoming req see
system.mem_ctrls.wrQLenPdf::3                       1                       # What write queue length does an incoming req see
system.mem_ctrls.wrQLenPdf::4                       1                       # What write queue length does an incoming req see
system.mem_ctrls.wrQLenPdf::5                       1                       # What write queue length does an incoming req see
system.mem_ctrls.wrQLenPdf::6                       1                       # What write queue length does an incoming req see
system.mem_ctrls.wrQLenPdf::7                       1                       # What write queue length does an incoming req see
system.mem_ctrls.wrQLenPdf::8                       1                       # What write queue length does an incoming req see
system.mem_ctrls.wrQLenPdf::9                       1                       # What write queue length does an incoming req see
system.mem_ctrls.wrQLenPdf::10                      1                       # What write queue length does an incoming req see
system.mem_ctrls.wrQLenPdf::11                      1                       # What write queue length does an incoming req see
system.mem_ctrls.wrQLenPdf::12                      1                       # What write queue length does an incoming req see
system.mem_ctrls.wrQLenPdf::13                      1                       # What write queue length does an incoming req see
system.mem_ctrls.wrQLenPdf::14                      1                       # What write queue length does an incoming req see
system.mem_ctrls.wrQLenPdf::15                     78                       # What write queue length does an incoming req see
system.mem_ctrls.wrQLenPdf::16                    175                       # What write queue length does an incoming req see
system.mem_ctrls.wrQLenPdf::17                   3267                       # What write queue length does an incoming req see
system.mem_ctrls.wrQLenPdf::18                   3592                       # What write queue length does an incoming req see
system.mem_ctrls.wrQLenPdf::19                   3603                       # What write queue length does an incoming req see
system.mem_ctrls.wrQLenPdf::20                   3600                       # What write queue length does an incoming req see
system.mem_ctrls.wrQLenPdf::21                   3700                       # What write queue length does an incoming req see
system.mem_ctrls.wrQLenPdf::22                   3636                       # What write queue length does an incoming req see
system.mem_ctrls.wrQLenPdf::23                   3634                       # What write queue length does an incoming req see
system.mem_ctrls.wrQLenPdf::24                   3621                       # What write queue length does an incoming req see
system.mem_ctrls.wrQLenPdf::25                   3595                       # What write queue length does an incoming req see
system.mem_ctrls.wrQLenPdf::26                   3600                       # What write queue length does an incoming req see
system.mem_ctrls.wrQLenPdf::27                   3594                       # What write queue length does an incoming req see
system.mem_ctrls.wrQLenPdf::28                   3598                       # What write queue length does an incoming req see
system.mem_ctrls.wrQLenPdf::29                   3597                       # What write queue length does an incoming req see
system.mem_ctrls.wrQLenPdf::30                   3590                       # What write queue length does an incoming req see
system.mem_ctrls.wrQLenPdf::31                   3634                       # What write queue length does an incoming req see
system.mem_ctrls.wrQLenPdf::32                   3586                       # What write queue length does an incoming req see
system.mem_ctrls.wrQLenPdf::33                      2                       # What write queue length does an incoming req see
system.mem_ctrls.wrQLenPdf::34                      0                       # What write queue length does an incoming req see
system.mem_ctrls.wrQLenPdf::35                      0                       # What write queue length does an incoming req see
system.mem_ctrls.wrQLenPdf::36                      0                       # What write queue length does an incoming req see
system.mem_ctrls.wrQLenPdf::37                      0                       # What write queue length does an incoming req see
system.mem_ctrls.wrQLenPdf::38                      0                       # What write queue length does an incoming req see
system.mem_ctrls.wrQLenPdf::39                      0                       # What write queue length does an incoming req see
system.mem_ctrls.wrQLenPdf::40                      0                       # What write queue length does an incoming req see
system.mem_ctrls.wrQLenPdf::41                      0                       # What write queue length does an incoming req see
system.mem_ctrls.wrQLenPdf::42                      0                       # What write queue length does an incoming req see
system.mem_ctrls.wrQLenPdf::43                      0                       # What write queue length does an incoming req see
system.mem_ctrls.wrQLenPdf::44                      0                       # What write queue length does an incoming req see
system.mem_ctrls.wrQLenPdf::45                      0                       # What write queue length does an incoming req see
system.mem_ctrls.wrQLenPdf::46                      0                       # What write queue length does an incoming req see
system.mem_ctrls.wrQLenPdf::47                      0                       # What write queue length does an incoming req see
system.mem_ctrls.wrQLenPdf::48                      0                       # What write queue length does an incoming req see
system.mem_ctrls.wrQLenPdf::49                      0                       # What write queue length does an incoming req see
system.mem_ctrls.wrQLenPdf::50                      0                       # What write queue length does an incoming req see
system.mem_ctrls.wrQLenPdf::51                      0                       # What write queue length does an incoming req see
system.mem_ctrls.wrQLenPdf::52                      0                       # What write queue length does an incoming req see
system.mem_ctrls.wrQLenPdf::53                      0                       # What write queue length does an incoming req see
system.mem_ctrls.wrQLenPdf::54                      0                       # What write queue length does an incoming req see
system.mem_ctrls.wrQLenPdf::55                      0                       # What write queue length does an incoming req see
system.mem_ctrls.wrQLenPdf::56                      0                       # What write queue length does an incoming req see
system.mem_ctrls.wrQLenPdf::57                      0                       # What write queue length does an incoming req see
system.mem_ctrls.wrQLenPdf::58                      0                       # What write queue length does an incoming req see
system.mem_ctrls.wrQLenPdf::59                      0                       # What write queue length does an incoming req see
system.mem_ctrls.wrQLenPdf::60                      0                       # What write queue length does an incoming req see
system.mem_ctrls.wrQLenPdf::61                      0                       # What write queue length does an incoming req see
system.mem_ctrls.wrQLenPdf::62                      0                       # What write queue length does an incoming req see
system.mem_ctrls.wrQLenPdf::63                      0                       # What write queue length does an incoming req see
system.mem_ctrls.bytesPerActivate::samples        20983                       # Bytes accessed per row activation
system.mem_ctrls.bytesPerActivate::mean    538.218558                       # Bytes accessed per row activation
system.mem_ctrls.bytesPerActivate::gmean   404.717885                       # Bytes accessed per row activation
system.mem_ctrls.bytesPerActivate::stdev   323.089770                       # Bytes accessed per row activation
system.mem_ctrls.bytesPerActivate::0-127         2714     12.93%     12.93% # Bytes accessed per row activation
system.mem_ctrls.bytesPerActivate::128-255         1939      9.24%     22.18% # Bytes accessed per row activation
system.mem_ctrls.bytesPerActivate::256-383         1036      4.94%     27.11% # Bytes accessed per row activation
system.mem_ctrls.bytesPerActivate::384-511          974      4.64%     31.75% # Bytes accessed per row activation
system.mem_ctrls.bytesPerActivate::512-639         8382     39.95%     71.70% # Bytes accessed per row activation
system.mem_ctrls.bytesPerActivate::640-767          553      2.64%     74.34% # Bytes accessed per row activation
system.mem_ctrls.bytesPerActivate::768-895          270      1.29%     75.62% # Bytes accessed per row activation
system.mem_ctrls.bytesPerActivate::896-1023          317      1.51%     77.13% # Bytes accessed per row activation
system.mem_ctrls.bytesPerActivate::1024-1151         4798     22.87%    100.00% # Bytes accessed per row activation
system.mem_ctrls.bytesPerActivate::total        20983                       # Bytes accessed per row activation
system.mem_ctrls.rdPerTurnAround::samples         3586                       # Reads before turning the bus around for writes
system.mem_ctrls.rdPerTurnAround::mean      33.116007                       # Reads before turning the bus around for writes
system.mem_ctrls.rdPerTurnAround::gmean     24.483464                       # Reads before turning the bus around for writes
system.mem_ctrls.rdPerTurnAround::stdev     61.083562                       # Reads before turning the bus around for writes
system.mem_ctrls.rdPerTurnAround::0-127          3452     96.26%     96.26% # Reads before turning the bus around for writes
system.mem_ctrls.rdPerTurnAround::128-255           12      0.33%     96.60% # Reads before turning the bus around for writes
system.mem_ctrls.rdPerTurnAround::256-383          121      3.37%     99.97% # Reads before turning the bus around for writes
system.mem_ctrls.rdPerTurnAround::2432-2559            1      0.03%    100.00% # Reads before turning the bus around for writes
system.mem_ctrls.rdPerTurnAround::total          3586                       # Reads before turning the bus around for writes
system.mem_ctrls.wrPerTurnAround::samples         3586                       # Writes before turning the bus around for reads
system.mem_ctrls.wrPerTurnAround::mean      16.090351                       # Writes before turning the bus around for reads
system.mem_ctrls.wrPerTurnAround::gmean     16.084495                       # Writes before turning the bus around for reads
system.mem_ctrls.wrPerTurnAround::stdev      0.457611                       # Writes before turning the bus around for reads
[...]
system.cpu.icache.ReadReq_avg_miss_latency::total 97873.188406                       # average ReadReq miss latency
system.cpu.icache.ReadReq_mshr_misses::.cpu.inst          552                       # number of ReadReq MSHR misses
system.cpu.icache.ReadReq_mshr_misses::total          552                       # number of ReadReq MSHR misses
system.cpu.icache.ReadReq_mshr_miss_latency::.cpu.inst     52922000                       # number of ReadReq MSHR miss cycles
system.cpu.icache.ReadReq_mshr_miss_latency::total     52922000                       # number of ReadReq MSHR miss cycles
system.cpu.icache.ReadReq_mshr_miss_rate::.cpu.inst     0.000475                       # mshr miss rate for ReadReq accesses
system.cpu.icache.ReadReq_mshr_miss_rate::total     0.000475                       # mshr miss rate for ReadReq accesses
system.cpu.icache.ReadReq_avg_mshr_miss_latency::.cpu.inst 95873.188406                       # average ReadReq mshr miss latency
system.cpu.icache.ReadReq_avg_mshr_miss_latency::total 95873.188406                       # average ReadReq mshr miss latency
system.cpu.icache.tags.pwrStateResidencyTicks::UNDEFINED  22781251000                       # Cumulative time (in ticks) in various power states
system.cpu.icache.tags.tagsinuse           412.948086                       # Cycle average of tags in use
system.cpu.icache.tags.total_refs             1162824                       # Total number of references to valid blocks.
system.cpu.icache.tags.sampled_refs               552                       # Sample count of references to valid blocks.
system.cpu.icache.tags.avg_refs           2106.565217                       # Average number of references to valid blocks.
system.cpu.icache.tags.warmup_cycle            108000                       # Cycle when the warmup percentage was hit.
system.cpu.icache.tags.occ_blocks::.cpu.inst   412.948086                       # Average occupied blocks per requestor
system.cpu.icache.tags.occ_percent::.cpu.inst     0.403270                       # Average percentage of cache occupancy
system.cpu.icache.tags.occ_percent::total     0.403270                       # Average percentage of cache occupancy
system.cpu.icache.tags.occ_task_id_blocks::1024          448                       # Occupied blocks per task id
system.cpu.icache.tags.age_task_id_blocks_1024::4          448                       # Occupied blocks per task id
system.cpu.icache.tags.occ_task_id_percent::1024     0.437500                       # Percentage of cache occupancy per task id
system.cpu.icache.tags.tag_accesses           2326200                       # Number of tag accesses
system.cpu.icache.tags.data_accesses          2326200                       # Number of data accesses
system.cpu.dtb.walker.pwrStateResidencyTicks::UNDEFINED  22781251000                       # Cumulative time (in ticks) in various power states
system.cpu.dtb.stage2_mmu.stage2_tlb.walker.pwrStateResidencyTicks::UNDEFINED  22781251000                       # Cumulative time (in ticks) in various power states
system.cpu.dcache.pwrStateResidencyTicks::UNDEFINED  22781251000                       # Cumulative time (in ticks) in various power states
system.cpu.dcache.demand_hits::.cpu.data      6991984                       # number of demand (read+write) hits
system.cpu.dcache.demand_hits::total          6991984                       # number of demand (read+write) hits
system.cpu.dcache.overall_hits::.cpu.data      6992093                       # number of overall hits
system.cpu.dcache.overall_hits::total         6992093                       # number of overall hits
system.cpu.dcache.demand_misses::.cpu.data       150284                       # number of demand (read+write) misses
system.cpu.dcache.demand_misses::total         150284                       # number of demand (read+write) misses
system.cpu.dcache.overall_misses::.cpu.data       151788                       # number of overall misses
system.cpu.dcache.overall_misses::total        151788                       # number of overall misses
system.cpu.dcache.demand_miss_latency::.cpu.data  12753583000                       # number of demand (read+write) miss cycles
system.cpu.dcache.demand_miss_latency::total  12753583000                       # number of demand (read+write) miss cycles
system.cpu.dcache.overall_miss_latency::.cpu.data  12753583000                       # number of overall miss cycles
system.cpu.dcache.overall_miss_latency::total  12753583000                       # number of overall miss cycles
system.cpu.dcache.demand_accesses::.cpu.data      7142268                       # number of demand (read+write) accesses
system.cpu.dcache.demand_accesses::total      7142268                       # number of demand (read+write) accesses
system.cpu.dcache.overall_accesses::.cpu.data      7143881                       # number of overall (read+write) accesses
system.cpu.dcache.overall_accesses::total      7143881                       # number of overall (read+write) accesses
system.cpu.dcache.demand_miss_rate::.cpu.data     0.021041                       # miss rate for demand accesses
system.cpu.dcache.demand_miss_rate::total     0.021041                       # miss rate for demand accesses
system.cpu.dcache.overall_miss_rate::.cpu.data     0.021247                       # miss rate for overall accesses
system.cpu.dcache.overall_miss_rate::total     0.021247                       # miss rate for overall accesses
system.cpu.dcache.demand_avg_miss_latency::.cpu.data 84863.212318                       # average overall miss latency
system.cpu.dcache.demand_avg_miss_latency::total 84863.212318                       # average overall miss latency
system.cpu.dcache.overall_avg_miss_latency::.cpu.data 84022.340369                       # average overall miss latency
system.cpu.dcache.overall_avg_miss_latency::total 84022.340369                       # average overall miss latency
system.cpu.dcache.blocked_cycles::no_mshrs        18048                       # number of cycles access was blocked
system.cpu.dcache.blocked_cycles::no_targets            0                       # number of cycles access was blocked
system.cpu.dcache.blocked::no_mshrs               599                       # number of cycles access was blocked
system.cpu.dcache.blocked::no_targets               0                       # number of cycles access was blocked
system.cpu.dcache.avg_blocked_cycles::no_mshrs    30.130217                       # average number of cycles each access was blocked
system.cpu.dcache.avg_blocked_cycles::no_targets          nan                       # average number of cycles each access was blocked
system.cpu.dcache.writebacks::.writebacks        70445                       # number of writebacks
system.cpu.dcache.writebacks::total             70445                       # number of writebacks
system.cpu.dcache.demand_mshr_hits::.cpu.data        31873                       # number of demand (read+write) MSHR hits
system.cpu.dcache.demand_mshr_hits::total        31873                       # number of demand (read+write) MSHR hits
system.cpu.dcache.overall_mshr_hits::.cpu.data        31873                       # number of overall MSHR hits
system.cpu.dcache.overall_mshr_hits::total        31873                       # number of overall MSHR hits
system.cpu.dcache.demand_mshr_misses::.cpu.data       118411                       # number of demand (read+write) MSHR misses
system.cpu.dcache.demand_mshr_misses::total       118411                       # number of demand (read+write) MSHR misses
system.cpu.dcache.overall_mshr_misses::.cpu.data       119910                       # number of overall MSHR misses
system.cpu.dcache.overall_mshr_misses::total       119910                       # number of overall MSHR misses
system.cpu.dcache.demand_mshr_miss_latency::.cpu.data  12250066000                       # number of demand (read+write) MSHR miss cycles
system.cpu.dcache.demand_mshr_miss_latency::total  12250066000                       # number of demand (read+write) MSHR miss cycles
system.cpu.dcache.overall_mshr_miss_latency::.cpu.data  12409781999                       # number of overall MSHR miss cycles
system.cpu.dcache.overall_mshr_miss_latency::total  12409781999                       # number of overall MSHR miss cycles
system.cpu.dcache.demand_mshr_miss_rate::.cpu.data     0.016579                       # mshr miss rate for demand accesses
system.cpu.dcache.demand_mshr_miss_rate::total     0.016579                       # mshr miss rate for demand accesses
system.cpu.dcache.overall_mshr_miss_rate::.cpu.data     0.016785                       # mshr miss rate for overall accesses
system.cpu.dcache.overall_mshr_miss_rate::total     0.016785                       # mshr miss rate for overall accesses
system.cpu.dcache.demand_avg_mshr_miss_latency::.cpu.data 103453.783855                       # average overall mshr miss latency
system.cpu.dcache.demand_avg_mshr_miss_latency::total 103453.783855                       # average overall mshr miss latency
system.cpu.dcache.overall_avg_mshr_miss_latency::.cpu.data 103492.469344                       # average overall mshr miss latency
system.cpu.dcache.overall_avg_mshr_miss_latency::total 103492.469344                       # average overall mshr miss latency
system.cpu.dcache.replacements                 118886                       # number of replacements
system.cpu.dcache.ReadReq_hits::.cpu.data      5638497                       # number of ReadReq hits
system.cpu.dcache.ReadReq_hits::total         5638497                       # number of ReadReq hits
system.cpu.dcache.ReadReq_misses::.cpu.data        48271                       # number of ReadReq misses
system.cpu.dcache.ReadReq_misses::total         48271                       # number of ReadReq misses
system.cpu.dcache.ReadReq_miss_latency::.cpu.data   4804549000                       # number of ReadReq miss cycles
system.cpu.dcache.ReadReq_miss_latency::total   4804549000                       # number of ReadReq miss cycles
system.cpu.dcache.ReadReq_accesses::.cpu.data      5686768                       # number of ReadReq accesses(hits+misses)
system.cpu.dcache.ReadReq_accesses::total      5686768                       # number of ReadReq accesses(hits+misses)
system.cpu.dcache.ReadReq_miss_rate::.cpu.data     0.008488                       # miss rate for ReadReq accesses
system.cpu.dcache.ReadReq_miss_rate::total     0.008488                       # miss rate for ReadReq accesses
system.cpu.dcache.ReadReq_avg_miss_latency::.cpu.data 99532.825092                       # average ReadReq miss latency
system.cpu.dcache.ReadReq_avg_miss_latency::total 99532.825092                       # average ReadReq miss latency
system.cpu.dcache.ReadReq_mshr_hits::.cpu.data          109                       # number of ReadReq MSHR hits
system.cpu.dcache.ReadReq_mshr_hits::total          109                       # number of ReadReq MSHR hits
system.cpu.dcache.ReadReq_mshr_misses::.cpu.data        48162                       # number of ReadReq MSHR misses
system.cpu.dcache.ReadReq_mshr_misses::total        48162                       # number of ReadReq MSHR misses
system.cpu.dcache.ReadReq_mshr_miss_latency::.cpu.data   4702423000                       # number of ReadReq MSHR miss cycles
system.cpu.dcache.ReadReq_mshr_miss_latency::total   4702423000                       # number of ReadReq MSHR miss cycles
system.cpu.dcache.ReadReq_mshr_miss_rate::.cpu.data     0.008469                       # mshr miss rate for ReadReq accesses
system.cpu.dcache.ReadReq_mshr_miss_rate::total     0.008469                       # mshr miss rate for ReadReq accesses
system.cpu.dcache.ReadReq_avg_mshr_miss_latency::.cpu.data 97637.618870                       # average ReadReq mshr miss latency
system.cpu.dcache.ReadReq_avg_mshr_miss_latency::total 97637.618870                       # average ReadReq mshr miss latency
system.cpu.dcache.WriteReq_hits::.cpu.data      1353487                       # number of WriteReq hits
system.cpu.dcache.WriteReq_hits::total        1353487                       # number of WriteReq hits
system.cpu.dcache.WriteReq_misses::.cpu.data       102013                       # number of WriteReq misses
system.cpu.dcache.WriteReq_misses::total       102013                       # number of WriteReq misses
system.cpu.dcache.WriteReq_miss_latency::.cpu.data   7949034000                       # number of WriteReq miss cycles
system.cpu.dcache.WriteReq_miss_latency::total   7949034000                       # number of WriteReq miss cycles
system.cpu.dcache.WriteReq_accesses::.cpu.data      1455500                       # number of WriteReq accesses(hits+misses)
system.cpu.dcache.WriteReq_accesses::total      1455500                       # number of WriteReq accesses(hits+misses)
system.cpu.dcache.WriteReq_miss_rate::.cpu.data     0.070088                       # miss rate for WriteReq accesses
system.cpu.dcache.WriteReq_miss_rate::total     0.070088                       # miss rate for WriteReq accesses
system.cpu.dcache.WriteReq_avg_miss_latency::.cpu.data 77921.774676                       # average WriteReq miss latency
system.cpu.dcache.WriteReq_avg_miss_latency::total 77921.774676                       # average WriteReq miss latency
system.cpu.dcache.WriteReq_mshr_hits::.cpu.data        31764                       # number of WriteReq MSHR hits
system.cpu.dcache.WriteReq_mshr_hits::total        31764                       # number of WriteReq MSHR hits
system.cpu.dcache.WriteReq_mshr_misses::.cpu.data        70249                       # number of WriteReq MSHR misses
system.cpu.dcache.WriteReq_mshr_misses::total        70249                       # number of WriteReq MSHR misses
system.cpu.dcache.WriteReq_mshr_miss_latency::.cpu.data   7547643000                       # number of WriteReq MSHR miss cycles
system.cpu.dcache.WriteReq_mshr_miss_latency::total   7547643000                       # number of WriteReq MSHR miss cycles
system.cpu.dcache.WriteReq_mshr_miss_rate::.cpu.data     0.048265                       # mshr miss rate for WriteReq accesses
system.cpu.dcache.WriteReq_mshr_miss_rate::total     0.048265                       # mshr miss rate for WriteReq accesses
system.cpu.dcache.WriteReq_avg_mshr_miss_latency::.cpu.data 107441.287420                       # average WriteReq mshr miss latency
system.cpu.dcache.WriteReq_avg_mshr_miss_latency::total 107441.287420                       # average WriteReq mshr miss latency
system.cpu.dcache.SoftPFReq_hits::.cpu.data          109                       # number of SoftPFReq hits
system.cpu.dcache.SoftPFReq_hits::total           109                       # number of SoftPFReq hits
system.cpu.dcache.SoftPFReq_misses::.cpu.data         1504                       # number of SoftPFReq misses
system.cpu.dcache.SoftPFReq_misses::total         1504                       # number of SoftPFReq misses
system.cpu.dcache.SoftPFReq_accesses::.cpu.data         1613                       # number of SoftPFReq accesses(hits+misses)
system.cpu.dcache.SoftPFReq_accesses::total         1613                       # number of SoftPFReq accesses(hits+misses)
system.cpu.dcache.SoftPFReq_miss_rate::.cpu.data     0.932424                       # miss rate for SoftPFReq accesses
system.cpu.dcache.SoftPFReq_miss_rate::total     0.932424                       # miss rate for SoftPFReq accesses
system.cpu.dcache.SoftPFReq_mshr_misses::.cpu.data         1499                       # number of SoftPFReq MSHR misses
system.cpu.dcache.SoftPFReq_mshr_misses::total         1499                       # number of SoftPFReq MSHR misses
system.cpu.dcache.SoftPFReq_mshr_miss_latency::.cpu.data    159715999                       # number of SoftPFReq MSHR miss cycles
system.cpu.dcache.SoftPFReq_mshr_miss_latency::total    159715999                       # number of SoftPFReq MSHR miss cycles
system.cpu.dcache.SoftPFReq_mshr_miss_rate::.cpu.data     0.929324                       # mshr miss rate for SoftPFReq accesses
system.cpu.dcache.SoftPFReq_mshr_miss_rate::total     0.929324                       # mshr miss rate for SoftPFReq accesses
system.cpu.dcache.SoftPFReq_avg_mshr_miss_latency::.cpu.data 106548.364910                       # average SoftPFReq mshr miss latency
system.cpu.dcache.SoftPFReq_avg_mshr_miss_latency::total 106548.364910                       # average SoftPFReq mshr miss latency
system.cpu.dcache.LoadLockedReq_hits::.cpu.data           38                       # number of LoadLockedReq hits
system.cpu.dcache.LoadLockedReq_hits::total           38                       # number of LoadLockedReq hits
system.cpu.dcache.LoadLockedReq_accesses::.cpu.data           38                       # number of LoadLockedReq accesses(hits+misses)
system.cpu.dcache.LoadLockedReq_accesses::total           38                       # number of LoadLockedReq accesses(hits+misses)
system.cpu.dcache.StoreCondReq_hits::.cpu.data           38                       # number of StoreCondReq hits
system.cpu.dcache.StoreCondReq_hits::total           38                       # number of StoreCondReq hits
system.cpu.dcache.StoreCondReq_accesses::.cpu.data           38                       # number of StoreCondReq accesses(hits+misses)
system.cpu.dcache.StoreCondReq_accesses::total           38                       # number of StoreCondReq accesses(hits+misses)
system.cpu.dcache.tags.pwrStateResidencyTicks::UNDEFINED  22781251000                       # Cumulative time (in ticks) in various power states
system.cpu.dcache.tags.tagsinuse           945.559574                       # Cycle average of tags in use
system.cpu.dcache.tags.total_refs             7112079                       # Total number of references to valid blocks.
system.cpu.dcache.tags.sampled_refs            119910                       # Sample count of references to valid blocks.
system.cpu.dcache.tags.avg_refs             59.311809                       # Average number of references to valid blocks.
system.cpu.dcache.tags.warmup_cycle            223000                       # Cycle when the warmup percentage was hit.
system.cpu.dcache.tags.occ_blocks::.cpu.data   945.559574                       # Average occupied blocks per requestor
system.cpu.dcache.tags.occ_percent::.cpu.data     0.923398                       # Average percentage of cache occupancy
system.cpu.dcache.tags.occ_percent::total     0.923398                       # Average percentage of cache occupancy
system.cpu.dcache.tags.occ_task_id_blocks::1024         1024                       # Occupied blocks per task id
system.cpu.dcache.tags.age_task_id_blocks_1024::0            1                       # Occupied blocks per task id
system.cpu.dcache.tags.age_task_id_blocks_1024::1            9                       # Occupied blocks per task id
system.cpu.dcache.tags.age_task_id_blocks_1024::2          171                       # Occupied blocks per task id
system.cpu.dcache.tags.age_task_id_blocks_1024::3          725                       # Occupied blocks per task id
system.cpu.dcache.tags.age_task_id_blocks_1024::4          118                       # Occupied blocks per task id
system.cpu.dcache.tags.occ_task_id_percent::1024            1                       # Percentage of cache occupancy per task id
system.cpu.dcache.tags.tag_accesses          14407824                       # Number of tag accesses
system.cpu.dcache.tags.data_accesses         14407824                       # Number of data accesses
system.cpu.itb.walker.pwrStateResidencyTicks::UNDEFINED  22781251000                       # Cumulative time (in ticks) in various power states
system.cpu.itb.stage2_mmu.stage2_tlb.walker.pwrStateResidencyTicks::UNDEFINED  22781251000                       # Cumulative time (in ticks) in various power states

---------- End Simulation Statistics   ----------
