
---------- Begin Simulation Statistics ----------
final_tick                                12449090000                       # Number of ticks from beginning of simulation (restored from checkpoints and never reset)
host_inst_rate                                 279849                       # Simulator instruction rate (inst/s)
host_mem_usage                                 691944                       # Number of bytes of host memory used
host_op_rate                                   288535                       # Simulator op (including micro ops) rate (op/s)
host_seconds                                    35.73                       # Real time elapsed on the host
host_tick_rate                              348382077                       # Simulator tick rate (ticks/s)
sim_freq                                 1000000000000                       # Frequency of simulated ticks
sim_insts                                    10000001                       # Number of instructions simulated
sim_ops                                      10310462                       # Number of ops (including micro ops) simulated
sim_seconds                                  0.012449                       # Number of seconds simulated
sim_ticks                                 12449090000                       # Number of ticks simulated
system.cpu.branchPred.BTBCorrect                    0                       # Number of correct BTB predictions (this stat may not work properly.
system.cpu.branchPred.BTBHitPct             79.721652                       # BTB Hit Percentage
system.cpu.branchPred.BTBHits                  423027                       # Number of BTB hits
system.cpu.branchPred.BTBLookups               530630                       # Number of BTB lookups
system.cpu.branchPred.RASInCorrect                 19                       # Number of incorrect RAS predictions.
system.cpu.branchPred.condIncorrect             39059                       # Number of conditional branches incorrect
system.cpu.branchPred.condPredicted            552428                       # Number of conditional branches predicted
system.cpu.branchPred.indirectHits              12042                       # Number of indirect target hits.
system.cpu.branchPred.indirectLookups           82052                       # Number of indirect predictor lookups.
system.cpu.branchPred.indirectMisses            70010                       # Number of indirect misses.
system.cpu.branchPred.lookups                  743645                       # Number of BP lookups
system.cpu.branchPred.usedRAS                   45569                       # Number of times the RAS was used to get a target.
system.cpu.branchPredindirectMispredicted         4720                       # Number of mispredicted indirect branches.
system.cpu.committedInsts                    10000001                       # Number of instructions committed
system.cpu.committedOps                      10310462                       # Number of ops (including micro ops) committed
system.cpu.cpi                               1.244909                       # CPI: cycles per instruction
system.cpu.discardedOps                        111007                       # Number of ops (including micro ops) which were discarded before commit
system.cpu.dtb.accesses                             0                       # DTB accesses
system.cpu.dtb.align_faults                         0                       # Number of TLB faults due to alignment restrictions
system.cpu.dtb.domain_faults                        0                       # Number of TLB faults due to domain restrictions
system.cpu.dtb.flush_entries                        0                       # Number of entries that have been flushed from TLB
system.cpu.dtb.flush_tlb                            0                       # Number of times complete TLB was flushed
system.cpu.dtb.flush_tlb_asid                       0                       # Number of times TLB was flushed by ASID
system.cpu.dtb.flush_tlb_mva                        0                       # Number of times TLB was flushed by MVA
system.cpu.dtb.flush_tlb_mva_asid                   0                       # Number of times TLB was flushed by MVA & ASID
system.cpu.dtb.hits                                 0                       # DTB hits
system.cpu.dtb.inst_accesses                        0                       # ITB inst accesses
system.cpu.dtb.inst_hits                            0                       # ITB inst hits
system.cpu.dtb.inst_misses                          0                       # ITB inst misses
system.cpu.dtb.misses                               0                       # DTB misses
system.cpu.dtb.perms_faults                         0                       # Number of TLB faults due to permissions restrictions
system.cpu.dtb.prefetch_faults                      0                       # Number of TLB faults due to prefetch
system.cpu.dtb.read_accesses                        0                       # DTB read accesses
system.cpu.dtb.read_hits                            0                       # DTB read hits
system.cpu.dtb.read_misses                          0                       # DTB read misses
system.cpu.dtb.stage2_mmu.stage2_tlb.accesses            0                       # DTB accesses
system.cpu.dtb.stage2_mmu.stage2_tlb.align_faults            0                       # Number of TLB faults due to alignment restrictions
system.cpu.dtb.stage2_mmu.stage2_tlb.domain_faults            0                       # Number of TLB faults due to domain restrictions
system.cpu.dtb.stage2_mmu.stage2_tlb.flush_entries            0                       # Number of entries that have been flushed from TLB
system.cpu.dtb.stage2_mmu.stage2_tlb.flush_tlb            0                       # Number of times complete TLB was flushed
system.cpu.dtb.stage2_mmu.stage2_tlb.flush_tlb_asid            0                       # Number of times TLB was flushed by ASID
system.cpu.dtb.stage2_mmu.stage2_tlb.flush_tlb_mva            0                       # Number of times TLB was flushed by MVA
system.cpu.dtb.stage2_mmu.stage2_tlb.flush_tlb_mva_asid            0                       # Number of times TLB was flushed by MVA & ASID
system.cpu.dtb.stage2_mmu.stage2_tlb.hits            0                       # DTB hits
system.cpu.dtb.stage2_mmu.stage2_tlb.inst_accesses            0                       # ITB inst accesses
system.cpu.dtb.stage2_mmu.stage2_tlb.inst_hits            0                       # ITB inst hits
system.cpu.dtb.stage2_mmu.stage2_tlb.inst_misses            0                       # ITB inst misses
system.cpu.dtb.stage2_mmu.stage2_tlb.misses            0                       # DTB misses
system.cpu.dtb.stage2_mmu.stage2_tlb.perms_faults            0                       # Number of TLB faults due to permissions restrictions
system.cpu.dtb.stage2_mmu.stage2_tlb.prefetch_faults            0                       # Number of TLB faults due to prefetch
system.cpu.dtb.stage2_mmu.stage2_tlb.read_accesses            0                       # DTB read accesses
system.cpu.dtb.stage2_mmu.stage2_tlb.read_hits            0                       # DTB read hits
system.cpu.dtb.stage2_mmu.stage2_tlb.read_misses            0                       # DTB read misses
system.cpu.dtb.stage2_mmu.stage2_tlb.walker.walkRequestOrigin_Requested::Data            0                       # Table walker requests started/completed, data/inst
system.cpu.dtb.stage2_mmu.stage2_tlb.walker.walkRequestOrigin_Requested::Inst            0                       # Table walker requests started/completed, data/inst
system.cpu.dtb.stage2_mmu.stage2_tlb.walker.walkRequestOrigin_Requested::total            0                       # Table walker requests started/completed, data/inst
system.cpu.dtb.stage2_mmu.stage2_tlb.walker.walkRequestOrigin_Completed::Data            0                       # Table walker requests started/completed, data/inst
system.cpu.dtb.stage2_mmu.stage2_tlb.walker.walkRequestOrigin_Completed::Inst            0                       # Table walker requests started/completed, data/inst
system.cpu.dtb.stage2_mmu.stage2_tlb.walker.walkRequestOrigin_Completed::total            0                       # Table walker requests started/completed, data/inst
system.cpu.dtb.stage2_mmu.stage2_tlb.walker.walkRequestOrigin::total            0                       # Table walker requests started/completed, data/inst
system.cpu.dtb.stage2_mmu.stage2_tlb.walker.walks            0                       # Table walker walks requested
system.cpu.dtb.stage2_mmu.stage2_tlb.write_accesses            0                       # DTB write accesses
system.cpu.dtb.stage2_mmu.stage2_tlb.write_hits            0                       # DTB write hits
system.cpu.dtb.stage2_mmu.stage2_tlb.write_misses            0                       # DTB write misses
system.cpu.dtb.walker.walkRequestOrigin_Requested::Data            0                       # Table walker requests started/completed, data/inst
system.cpu.dtb.walker.walkRequestOrigin_Requested::Inst            0                       # Table walker requests started/completed, data/inst
system.cpu.dtb.walker.walkRequestOrigin_Requested::total            0                       # Table walker requests started/completed, data/inst
system.cpu.dtb.walker.walkRequestOrigin_Completed::Data            0                       # Table walker requests started/completed, data/inst
system.cpu.dtb.walker.walkRequestOrigin_Completed::Inst            0                       # Table walker requests started/completed, data/inst
system.cpu.dtb.walker.walkRequestOrigin_Completed::total            0                       # Table walker requests started/completed, data/inst
system.cpu.dtb.walker.walkRequestOrigin::total            0                       # Table walker requests started/completed, data/inst
system.cpu.dtb.walker.walks                         0                       # Table walker walks requested
system.cpu.dtb.write_accesses                       0                       # DTB write accesses
system.cpu.dtb.write_hits                           0                       # DTB write hits
system.cpu.dtb.write_misses                         0                       # DTB write misses
system.cpu.fetch2.amo_instructions                  0                       # Number of memory atomic instructions successfully decoded
system.cpu.fetch2.fp_instructions                   0                       # Number of floating point instructions successfully decoded
system.cpu.fetch2.int_instructions            4938442                       # Number of integer instructions successfully decoded
system.cpu.fetch2.load_instructions           3790271                       # Number of memory load instructions successfully decoded
system.cpu.fetch2.store_instructions           627496                       # Number of memory store instructions successfully decoded
system.cpu.fetch2.vec_instructions                  0                       # Number of SIMD instructions successfully decoded
system.cpu.idleCycles                          606402                       # Total number of cycles that the object has spent stopped
system.cpu.ipc                               0.803272                       # IPC: instructions per cycle
system.cpu.itb.accesses                             0                       # DTB accesses
system.cpu.itb.align_faults                         0                       # Number of TLB faults due to alignment restrictions
system.cpu.itb.domain_faults                        0                       # Number of TLB faults due to domain restrictions
system.cpu.itb.flush_entries                        0                       # Number of entries that have been flushed from TLB
system.cpu.itb.flush_tlb                            0                       # Number of times complete TLB was flushed
system.cpu.itb.flush_tlb_asid                       0                       # Number of times TLB was flushed by ASID
system.cpu.itb.flush_tlb_mva                        0                       # Number of times TLB was flushed by MVA
system.cpu.itb.flush_tlb_mva_asid                   0                       # Number of times TLB was flushed by MVA & ASID
system.cpu.itb.hits                                 0                       # DTB hits
system.cpu.itb.inst_accesses                        0                       # ITB inst accesses
system.cpu.itb.inst_hits                            0                       # ITB inst hits
system.cpu.itb.inst_misses                          0                       # ITB inst misses
system.cpu.itb.misses                               0                       # DTB misses
system.cpu.itb.perms_faults                         0                       # Number of TLB faults due to permissions restrictions
system.cpu.itb.prefetch_faults                      0                       # Number of TLB faults due to prefetch
system.cpu.itb.read_accesses                        0                       # DTB read accesses
system.cpu.itb.read_hits                            0                       # DTB read hits
system.cpu.itb.read_misses                          0                       # DTB read misses
system.cpu.itb.stage2_mmu.stage2_tlb.accesses            0                       # DTB accesses
system.cpu.itb.stage2_mmu.stage2_tlb.align_faults            0                       # Number of TLB faults due to alignment restrictions
system.cpu.itb.stage2_mmu.stage2_tlb.domain_faults            0                       # Number of TLB faults due to domain restrictions
system.cpu.itb.stage2_mmu.stage2_tlb.flush_entries            0                       # Number of entries that have been flushed from TLB
system.cpu.itb.stage2_mmu.stage2_tlb.flush_tlb            0                       # Number of times complete TLB was flushed
system.cpu.itb.stage2_mmu.stage2_tlb.flush_tlb_asid            0                       # Number of times TLB was flushed by ASID
system.cpu.itb.stage2_mmu.stage2_tlb.flush_tlb_mva            0                       # Number of times TLB was flushed by MVA
system.cpu.itb.stage2_mmu.stage2_tlb.flush_tlb_mva_asid            0                       # Number of times TLB was flushed by MVA & ASID
system.cpu.itb.stage2_mmu.stage2_tlb.hits            0                       # DTB hits
system.cpu.itb.stage2_mmu.stage2_tlb.inst_accesses            0                       # ITB inst accesses
system.cpu.itb.stage2_mmu.stage2_tlb.inst_hits            0                       # ITB inst hits
system.cpu.itb.stage2_mmu.stage2_tlb.inst_misses            0                       # ITB inst misses
system.cpu.itb.stage2_mmu.stage2_tlb.misses            0                       # DTB misses
system.cpu.itb.stage2_mmu.stage2_tlb.perms_faults            0                       # Number of TLB faults due to permissions restrictions
system.cpu.itb.stage2_mmu.stage2_tlb.prefetch_faults            0                       # Number of TLB faults due to prefetch
system.cpu.itb.stage2_mmu.stage2_tlb.read_accesses            0                       # DTB read accesses
system.cpu.itb.stage2_mmu.stage2_tlb.read_hits            0                       # DTB read hits
system.cpu.itb.stage2_mmu.stage2_tlb.read_misses            0                       # DTB read misses
system.cpu.itb.stage2_mmu.stage2_tlb.walker.walkRequestOrigin_Requested::Data            0                       # Table walker requests started/completed, data/inst
system.cpu.itb.stage2_mmu.stage2_tlb.walker.walkRequestOrigin_Requested::Inst            0                       # Table walker requests started/completed, data/inst
system.cpu.itb.stage2_mmu.stage2_tlb.walker.walkRequestOrigin_Requested::total            0                       # Table walker requests started/completed, data/inst
system.cpu.itb.stage2_mmu.stage2_tlb.walker.walkRequestOrigin_Completed::Data            0                       # Table walker requests started/completed, data/inst
system.cpu.itb.stage2_mmu.stage2_tlb.walker.walkRequestOrigin_Completed::Inst            0                       # Table walker requests started/completed, data/inst
system.cpu.itb.stage2_mmu.stage2_tlb.walker.walkRequestOrigin_Completed::total            0                       # Table walker requests started/completed, data/inst
system.cpu.itb.stage2_mmu.stage2_tlb.walker.walkRequestOrigin::total            0                       # Table walker requests started/completed, data/inst
system.cpu.itb.stage2_mmu.stage2_tlb.walker.walks            0                       # Table walker walks requested
system.cpu.itb.stage2_mmu.stage2_tlb.write_accesses            0                       # DTB write accesses
system.cpu.itb.stage2_mmu.stage2_tlb.write_hits            0                       # DTB write hits
system.cpu.itb.stage2_mmu.stage2_tlb.write_misses            0                       # DTB write misses
system.cpu.itb.walker.walkRequestOrigin_Requested::Data            0                       # Table walker requests started/completed, data/inst
system.cpu.itb.walker.walkRequestOrigin_Requested::Inst            0                       # Table walker requests started/completed, data/inst
system.cpu.itb.walker.walkRequestOrigin_Requested::total            0                       # Table walker requests started/completed, data/inst
system.cpu.itb.walker.walkRequestOrigin_Completed::Data            0                       # Table walker requests started/completed, data/inst
system.cpu.itb.walker.walkRequestOrigin_Completed::Inst            0                       # Table walker requests started/completed, data/inst
system.cpu.itb.walker.walkRequestOrigin_Completed::total            0                       # Table walker requests started/completed, data/inst
system.cpu.itb.walker.walkRequestOrigin::total            0                       # Table walker requests started/completed, data/inst
system.cpu.itb.walker.walks                         0                       # Table walker walks requested
system.cpu.itb.write_accesses                       0                       # DTB write accesses
system.cpu.itb.write_hits                           0                       # DTB write hits
system.cpu.itb.write_misses                         0                       # DTB write misses
system.cpu.numCycles                         12449090                       # number of cpu cycles simulated
system.cpu.numFetchSuspends                         0                       # Number of times Execute suspended instruction fetching
system.cpu.numWorkItemsCompleted                    0                       # number of work items this cpu completed
system.cpu.numWorkItemsStarted                      0                       # number of work items this cpu started
system.cpu.op_class_0::No_OpClass                   0      0.00%      0.00% # Class of committed instruction
system.cpu.op_class_0::IntAlu                 5703517     55.32%     55.32% # Class of committed instruction
system.cpu.op_class_0::IntMult                  27933      0.27%     55.59% # Class of committed instruction
system.cpu.op_class_0::IntDiv                       0      0.00%     55.59% # Class of committed instruction
system.cpu.op_class_0::FloatAdd                     0      0.00%     55.59% # Class of committed instruction
system.cpu.op_class_0::FloatCmp                     0      0.00%     55.59% # Class of committed instruction
system.cpu.op_class_0::FloatCvt                     0      0.00%     55.59% # Class of committed instruction
system.cpu.op_class_0::FloatMult                    0      0.00%     55.59% # Class of committed instruction
system.cpu.op_class_0::FloatMultAcc                 0      0.00%     55.59% # Class of committed instruction
system.cpu.op_class_0::FloatDiv                     0      0.00%     55.59% # Class of committed instruction
system.cpu.op_class_0::FloatMisc                    0      0.00%     55.59% # Class of committed instruction
system.cpu.op_class_0::FloatSqrt                    0      0.00%     55.59% # Class of committed instruction
system.cpu.op_class_0::SimdAdd                    376      0.00%     55.59% # Class of committed instruction
system.cpu.op_class_0::SimdAddAcc                   0      0.00%     55.59% # Class of committed instruction
system.cpu.op_class_0::SimdAlu                    466      0.00%     55.60% # Class of committed instruction
system.cpu.op_class_0::SimdCmp                    378      0.00%     55.60% # Class of committed instruction
system.cpu.op_class_0::SimdCvt                      0      0.00%     55.60% # Class of committed instruction
system.cpu.op_class_0::SimdMisc                    53      0.00%     55.60% # Class of committed instruction
system.cpu.op_class_0::SimdMult                     0      0.00%     55.60% # Class of committed instruction
system.cpu.op_class_0::SimdMultAcc                  0      0.00%     55.60% # Class of committed instruction
system.cpu.op_class_0::SimdShift                    0      0.00%     55.60% # Class of committed instruction
system.cpu.op_class_0::SimdShiftAcc                 0      0.00%     55.60% # Class of committed instruction
system.cpu.op_class_0::SimdDiv                      0      0.00%     55.60% # Class of committed instruction
system.cpu.op_class_0::SimdSqrt                     0      0.00%     55.60% # Class of committed instruction
system.cpu.op_class_0::SimdFloatAdd             38175      0.37%     55.97% # Class of committed instruction
system.cpu.op_class_0::SimdFloatAlu                 0      0.00%     55.97% # Class of committed instruction
system.cpu.op_class_0::SimdFloatCmp             30516      0.30%     56.27% # Class of committed instruction
system.cpu.op_class_0::SimdFloatCvt             23769      0.23%     56.50% # Class of committed instruction
system.cpu.op_class_0::SimdFloatDiv              8755      0.08%     56.58% # Class of committed instruction
system.cpu.op_class_0::SimdFloatMisc            70752      0.69%     57.27% # Class of committed instruction
system.cpu.op_class_0::SimdFloatMult            10139      0.10%     57.37% # Class of committed instruction
system.cpu.op_class_0::SimdFloatMultAcc         11115      0.11%     57.48% # Class of committed instruction
system.cpu.op_class_0::SimdFloatSqrt                0      0.00%     57.48% # Class of committed instruction
system.cpu.op_class_0::SimdReduceAdd                0      0.00%     57.48% # Class of committed instruction
system.cpu.op_class_0::SimdReduceAlu                0      0.00%     57.48% # Class of committed instruction
system.cpu.op_class_0::SimdReduceCmp                0      0.00%     57.48% # Class of committed instruction
system.cpu.op_class_0::SimdFloatReduceAdd            0      0.00%     57.48% # Class of committed instruction
system.cpu.op_class_0::SimdFloatReduceCmp            0      0.00%     57.48% # Class of committed instruction
system.cpu.op_class_0::SimdAes                      0      0.00%     57.48% # Class of committed instruction
system.cpu.op_class_0::SimdAesMix                   0      0.00%     57.48% # Class of committed instruction
system.cpu.op_class_0::SimdSha1Hash                 0      0.00%     57.48% # Class of committed instruction
system.cpu.op_class_0::SimdSha1Hash2                0      0.00%     57.48% # Class of committed instruction
system.cpu.op_class_0::SimdSha256Hash               0      0.00%     57.48% # Class of committed instruction
system.cpu.op_class_0::SimdSha256Hash2              0      0.00%     57.48% # Class of committed instruction
system.cpu.op_class_0::SimdShaSigma2                0      0.00%     57.48% # Class of committed instruction
system.cpu.op_class_0::SimdShaSigma3                0      0.00%     57.48% # Class of committed instruction
system.cpu.op_class_0::SimdPredAlu                  0      0.00%     57.48% # Class of committed instruction
system.cpu.op_class_0::MemRead                3584531     34.77%     92.24% # Class of committed instruction
system.cpu.op_class_0::MemWrite                799987      7.76%    100.00% # Class of committed instruction
system.cpu.op_class_0::FloatMemRead                 0      0.00%    100.00% # Class of committed instruction
system.cpu.op_class_0::FloatMemWrite                0      0.00%    100.00% # Class of committed instruction
system.cpu.op_class_0::IprAccess                    0      0.00%    100.00% # Class of committed instruction
system.cpu.op_class_0::InstPrefetch                 0      0.00%    100.00% # Class of committed instruction
system.cpu.op_class_0::total                 10310462                       # Class of committed instruction
system.cpu.tickCycles                        11842688                       # Number of cycles that the object actually ticked
system.cpu.workload.numSyscalls                    32                       # Number of system calls
system.membus.snoop_filter.hit_multi_requests            0                       # Number of requests hitting in the snoop filter with multiple (>1) holders of the requested data.
system.membus.snoop_filter.hit_multi_snoops            0                       # Number of snoops hitting in the snoop filter with multiple (>1) holders of the requested data.
system.membus.snoop_filter.hit_single_requests            0                       # Number of requests hitting in the snoop filter with a single holder of the requested data.
system.membus.snoop_filter.hit_single_snoops            0                       # Number of snoops hitting in the snoop filter with a single holder of the requested data.
system.membus.snoop_filter.tot_requests          4633                       # Total number of requests made to the snoop filter.
system.membus.snoop_filter.tot_snoops               0                       # Total number of snoops made to the snoop filter.
system.tol2bus.snoop_filter.hit_multi_requests          172                       # Number of requests hitting in the snoop filter with multiple (>1) holders of the requested data.
system.tol2bus.snoop_filter.hit_multi_snoops            0                       # Number of snoops hitting in the snoop filter with multiple (>1) holders of the requested data.
system.tol2bus.snoop_filter.hit_single_requests        12354                       # Number of requests hitting in the snoop filter with a single holder of the requested data.
system.tol2bus.snoop_filter.hit_single_snoops            0                       # Number of snoops hitting in the snoop filter with a single holder of the requested data.
system.tol2bus.snoop_filter.tot_requests        26204                       # Total number of requests made to the snoop filter.
system.tol2bus.snoop_filter.tot_snoops              0                       # Total number of snoops made to the snoop filter.
system.membus.pwrStateResidencyTicks::UNDEFINED  12449090000                       # Cumulative time (in ticks) in various power states
system.membus.trans_dist::ReadResp               1803                       # Transaction distribution
system.membus.trans_dist::ReadExReq              2830                       # Transaction distribution
system.membus.trans_dist::ReadExResp             2830                       # Transaction distribution
system.membus.trans_dist::ReadSharedReq          1803                       # Transaction distribution
system.membus.pkt_count_system.l2.mem_side::system.mem_ctrls.port         9266                       # Packet count per connected master and slave (bytes)
system.membus.pkt_count::total                   9266                       # Packet count per connected master and slave (bytes)
system.membus.pkt_size_system.l2.mem_side::system.mem_ctrls.port       296512                       # Cumulative packet size per connected master and slave (bytes)
system.membus.pkt_size::total                  296512                       # Cumulative packet size per connected master and slave (bytes)
system.membus.snoops                                0                       # Total snoops (count)
system.membus.snoopTraffic                          0                       # Total snoop traffic (bytes)
system.membus.snoop_fanout::samples              4633                       # Request fanout histogram
system.membus.snoop_fanout::mean                    0                       # Request fanout histogram
system.membus.snoop_fanout::stdev                   0                       # Request fanout histogram
system.membus.snoop_fanout::underflows              0      0.00%      0.00% # Request fanout histogram
system.membus.snoop_fanout::0                    4633    100.00%    100.00% # Request fanout histogram
system.membus.snoop_fanout::1                       0      0.00%    100.00% # Request fanout histogram
system.membus.snoop_fanout::overflows               0      0.00%    100.00% # Request fanout histogram
system.membus.snoop_fanout::min_value               0                       # Request fanout histogram
system.membus.snoop_fanout::max_value               0                       # Request fanout histogram
system.membus.snoop_fanout::total                4633                       # Request fanout histogram
system.membus.respLayer1.occupancy           24715250                       # Layer occupancy (ticks)
system.membus.respLayer1.utilization              0.2                       # Layer utilization (%)
system.membus.reqLayer0.occupancy             4633000                       # Layer occupancy (ticks)
system.membus.reqLayer0.utilization               0.0                       # Layer utilization (%)
system.tol2bus.pwrStateResidencyTicks::UNDEFINED  12449090000                       # Cumulative time (in ticks) in various power states
system.tol2bus.trans_dist::ReadResp              5721                       # Transaction distribution
system.tol2bus.trans_dist::WritebackDirty        10163                       # Transaction distribution
system.tol2bus.trans_dist::WritebackClean         1521                       # Transaction distribution
system.tol2bus.trans_dist::CleanEvict             652                       # Transaction distribution
system.tol2bus.trans_dist::ReadExReq             8147                       # Transaction distribution
system.tol2bus.trans_dist::ReadExResp            8147                       # Transaction distribution
system.tol2bus.trans_dist::ReadCleanReq          2029                       # Transaction distribution
system.tol2bus.trans_dist::ReadSharedReq         3692                       # Transaction distribution
system.tol2bus.pkt_count_system.cpu.icache.mem_side::system.l2.cpu_side         5579                       # Packet count per connected master and slave (bytes)
system.tol2bus.pkt_count_system.cpu.dcache.mem_side::system.l2.cpu_side        34493                       # Packet count per connected master and slave (bytes)
system.tol2bus.pkt_count::total                 40072                       # Packet count per connected master and slave (bytes)
system.tol2bus.pkt_size_system.cpu.icache.mem_side::system.l2.cpu_side       227200                       # Cumulative packet size per connected master and slave (bytes)
system.tol2bus.pkt_size_system.cpu.dcache.mem_side::system.l2.cpu_side      1408128                       # Cumulative packet size per connected master and slave (bytes)
system.tol2bus.pkt_size::total                1635328                       # Cumulative packet size per connected master and slave (bytes)
system.tol2bus.snoops                               0                       # Total snoops (count)
system.tol2bus.snoopTraffic                         0                       # Total snoop traffic (bytes)
system.tol2bus.snoop_fanout::samples            13868                       # Request fanout histogram
system.tol2bus.snoop_fanout::mean            0.013701                       # Request fanout histogram
system.tol2bus.snoop_fanout::stdev           0.116249                       # Request fanout histogram
system.tol2bus.snoop_fanout::underflows             0      0.00%      0.00% # Request fanout histogram
system.tol2bus.snoop_fanout::0                  13678     98.63%     98.63% # Request fanout histogram
system.tol2bus.snoop_fanout::1                    190      1.37%    100.00% # Request fanout histogram
system.tol2bus.snoop_fanout::2                      0      0.00%    100.00% # Request fanout histogram
system.tol2bus.snoop_fanout::overflows              0      0.00%    100.00% # Request fanout histogram
system.tol2bus.snoop_fanout::min_value              0                       # Request fanout histogram
system.tol2bus.snoop_fanout::max_value              1                       # Request fanout histogram
system.tol2bus.snoop_fanout::total              13868                       # Request fanout histogram
system.tol2bus.reqLayer0.occupancy           49572000                       # Layer occupancy (ticks)
system.tol2bus.reqLayer0.utilization              0.4                       # Layer utilization (%)
system.tol2bus.respLayer1.occupancy          35523993                       # Layer occupancy (ticks)
system.tol2bus.respLayer1.utilization             0.3                       # Layer utilization (%)
system.tol2bus.respLayer0.occupancy           6087999                       # Layer occupancy (ticks)
system.tol2bus.respLayer0.utilization             0.0                       # Layer utilization (%)
system.voltage_domain.voltage                       1                       # Voltage in Volts
system.clk_domain.clock                          1000                       # Clock period in ticks
system.l2.pwrStateResidencyTicks::UNDEFINED  12449090000                       # Cumulative time (in ticks) in various power states
system.l2.demand_hits::.cpu.inst                  738                       # number of demand (read+write) hits
system.l2.demand_hits::.cpu.data                 8490                       # number of demand (read+write) hits
system.l2.demand_hits::total                     9228                       # number of demand (read+write) hits
system.l2.overall_hits::.cpu.inst                 738                       # number of overall hits
system.l2.overall_hits::.cpu.data                8490                       # number of overall hits
system.l2.overall_hits::total                    9228                       # number of overall hits
system.l2.demand_misses::.cpu.inst               1291                       # number of demand (read+write) misses
system.l2.demand_misses::.cpu.data               3349                       # number of demand (read+write) misses
system.l2.demand_misses::total                   4640                       # number of demand (read+write) misses
system.l2.overall_misses::.cpu.inst              1291                       # number of overall misses
system.l2.overall_misses::.cpu.data              3349                       # number of overall misses
system.l2.overall_misses::total                  4640                       # number of overall misses
system.l2.demand_miss_latency::.cpu.inst    125279000                       # number of demand (read+write) miss cycles
system.l2.demand_miss_latency::.cpu.data    335772000                       # number of demand (read+write) miss cycles
system.l2.demand_miss_latency::total        461051000                       # number of demand (read+write) miss cycles
system.l2.overall_miss_latency::.cpu.inst    125279000                       # number of overall miss cycles
system.l2.overall_miss_latency::.cpu.data    335772000                       # number of overall miss cycles
system.l2.overall_miss_latency::total       461051000                       # number of overall miss cycles
system.l2.demand_accesses::.cpu.inst             2029                       # number of demand (read+write) accesses
system.l2.demand_accesses::.cpu.data            11839                       # number of demand (read+write) accesses
system.l2.demand_accesses::total                13868                       # number of demand (read+write) accesses
system.l2.overall_accesses::.cpu.inst            2029                       # number of overall (read+write) accesses
system.l2.overall_accesses::.cpu.data           11839                       # number of overall (read+write) accesses
system.l2.overall_accesses::total               13868                       # number of overall (read+write) accesses
system.l2.demand_miss_rate::.cpu.inst        0.636274                       # miss rate for demand accesses
system.l2.demand_miss_rate::.cpu.data        0.282879                       # miss rate for demand accesses
system.l2.demand_miss_rate::total            0.334583                       # miss rate for demand accesses
system.l2.overall_miss_rate::.cpu.inst       0.636274                       # miss rate for overall accesses
system.l2.overall_miss_rate::.cpu.data       0.282879                       # miss rate for overall accesses
system.l2.overall_miss_rate::total           0.334583                       # miss rate for overall accesses
system.l2.demand_avg_miss_latency::.cpu.inst 97040.278854                       # average overall miss latency
system.l2.demand_avg_miss_latency::.cpu.data 100260.376232                       # average overall miss latency
system.l2.demand_avg_miss_latency::total 99364.439655                       # average overall miss latency
system.l2.overall_avg_miss_latency::.cpu.inst 97040.278854                       # average overall miss latency
system.l2.overall_avg_miss_latency::.cpu.data 100260.376232                       # average overall miss latency
system.l2.overall_avg_miss_latency::total 99364.439655                       # average overall miss latency
system.l2.blocked_cycles::no_mshrs                  0                       # number of cycles access was blocked
system.l2.blocked_cycles::no_targets                0                       # number of cycles access was blocked
system.l2.blocked::no_mshrs                         0                       # number of cycles access was blocked
system.l2.blocked::no_targets                       0                       # number of cycles access was blocked
system.l2.avg_blocked_cycles::no_mshrs            nan                       # average number of cycles each access was blocked
system.l2.avg_blocked_cycles::no_targets          nan                       # average number of cycles each access was blocked
system.l2.demand_mshr_hits::.cpu.inst               1                       # number of demand (read+write) MSHR hits
system.l2.demand_mshr_hits::.cpu.data               6                       # number of demand (read+write) MSHR hits
system.l2.demand_mshr_hits::total                   7                       # number of demand (read+write) MSHR hits
system.l2.overall_mshr_hits::.cpu.inst              1                       # number of overall MSHR hits
system.l2.overall_mshr_hits::.cpu.data              6                       # number of overall MSHR hits
system.l2.overall_mshr_hits::total                  7                       # number of overall MSHR hits
system.l2.demand_mshr_misses::.cpu.inst          1290                       # number of demand (read+write) MSHR misses
system.l2.demand_mshr_misses::.cpu.data          3343                       # number of demand (read+write) MSHR misses
system.l2.demand_mshr_misses::total              4633                       # number of demand (read+write) MSHR misses
system.l2.overall_mshr_misses::.cpu.inst         1290                       # number of overall MSHR misses
system.l2.overall_mshr_misses::.cpu.data         3343                       # number of overall MSHR misses
system.l2.overall_mshr_misses::total             4633                       # number of overall MSHR misses
system.l2.demand_mshr_miss_latency::.cpu.inst     99400000                       # number of demand (read+write) MSHR miss cycles
system.l2.demand_mshr_miss_latency::.cpu.data    268262000                       # number of demand (read+write) MSHR miss cycles
system.l2.demand_mshr_miss_latency::total    367662000                       # number of demand (read+write) MSHR miss cycles
system.l2.overall_mshr_miss_latency::.cpu.inst     99400000                       # number of overall MSHR miss cycles
system.l2.overall_mshr_miss_latency::.cpu.data    268262000                       # number of overall MSHR miss cycles
system.l2.overall_mshr_miss_latency::total    367662000                       # number of overall MSHR miss cycles
system.l2.demand_mshr_miss_rate::.cpu.inst     0.635781                       # mshr miss rate for demand accesses
system.l2.demand_mshr_miss_rate::.cpu.data     0.282372                       # mshr miss rate for demand accesses
system.l2.demand_mshr_miss_rate::total       0.334078                       # mshr miss rate for demand accesses
system.l2.overall_mshr_miss_rate::.cpu.inst     0.635781                       # mshr miss rate for overall accesses
system.l2.overall_mshr_miss_rate::.cpu.data     0.282372                       # mshr miss rate for overall accesses
system.l2.overall_mshr_miss_rate::total      0.334078                       # mshr miss rate for overall accesses
system.l2.demand_avg_mshr_miss_latency::.cpu.inst 77054.263566                       # average overall mshr miss latency
system.l2.demand_avg_mshr_miss_latency::.cpu.data 80245.886928                       # average overall mshr miss latency
system.l2.demand_avg_mshr_miss_latency::total 79357.219944                       # average overall mshr miss latency
system.l2.overall_avg_mshr_miss_latency::.cpu.inst 77054.263566                       # average overall mshr miss latency
system.l2.overall_avg_mshr_miss_latency::.cpu.data 80245.886928                       # average overall mshr miss latency
system.l2.overall_avg_mshr_miss_latency::total 79357.219944                       # average overall mshr miss latency
system.l2.replacements                              0                       # number of replacements
system.l2.WritebackDirty_hits::.writebacks        10163                       # number of WritebackDirty hits
system.l2.WritebackDirty_hits::total            10163                       # number of WritebackDirty hits
system.l2.WritebackDirty_accesses::.writebacks        10163                       # number of WritebackDirty accesses(hits+misses)
system.l2.WritebackDirty_accesses::total        10163                       # number of WritebackDirty accesses(hits+misses)
system.l2.WritebackClean_hits::.writebacks         1452                       # number of WritebackClean hits
system.l2.WritebackClean_hits::total             1452                       # number of WritebackClean hits
system.l2.WritebackClean_accesses::.writebacks         1452                       # number of WritebackClean accesses(hits+misses)
system.l2.WritebackClean_accesses::total         1452                       # number of WritebackClean accesses(hits+misses)
system.l2.ReadExReq_hits::.cpu.data              5317                       # number of ReadExReq hits
system.l2.ReadExReq_hits::total                  5317                       # number of ReadExReq hits
system.l2.ReadExReq_misses::.cpu.data            2830                       # number of ReadExReq misses
system.l2.ReadExReq_misses::total                2830                       # number of ReadExReq misses
system.l2.ReadExReq_miss_latency::.cpu.data    283462000                       # number of ReadExReq miss cycles
system.l2.ReadExReq_miss_latency::total     283462000                       # number of ReadExReq miss cycles
system.l2.ReadExReq_accesses::.cpu.data          8147                       # number of ReadExReq accesses(hits+misses)
system.l2.ReadExReq_accesses::total              8147                       # number of ReadExReq accesses(hits+misses)
system.l2.ReadExReq_miss_rate::.cpu.data     0.347367                       # miss rate for ReadExReq accesses
system.l2.ReadExReq_miss_rate::total         0.347367                       # miss rate for ReadExReq accesses
system.l2.ReadExReq_avg_miss_latency::.cpu.data 100163.250883                       # average ReadExReq miss latency
system.l2.ReadExReq_avg_miss_latency::total 100163.250883                       # average ReadExReq miss latency
system.l2.ReadExReq_mshr_misses::.cpu.data         2830                       # number of ReadExReq MSHR misses
system.l2.ReadExReq_mshr_misses::total           2830                       # number of ReadExReq MSHR misses
system.l2.ReadExReq_mshr_miss_latency::.cpu.data    226862000                       # number of ReadExReq MSHR miss cycles
system.l2.ReadExReq_mshr_miss_latency::total    226862000                       # number of ReadExReq MSHR miss cycles
system.l2.ReadExReq_mshr_miss_rate::.cpu.data     0.347367                       # mshr miss rate for ReadExReq accesses
system.l2.ReadExReq_mshr_miss_rate::total     0.347367                       # mshr miss rate for ReadExReq accesses
system.l2.ReadExReq_avg_mshr_miss_latency::.cpu.data 80163.250883                       # average ReadExReq mshr miss latency
system.l2.ReadExReq_avg_mshr_miss_latency::total 80163.250883                       # average ReadExReq mshr miss latency
system.l2.ReadCleanReq_hits::.cpu.inst            738                       # number of ReadCleanReq hits
system.l2.ReadCleanReq_hits::total                738                       # number of ReadCleanReq hits
system.l2.ReadCleanReq_misses::.cpu.inst         1291                       # number of ReadCleanReq misses
system.l2.ReadCleanReq_misses::total             1291                       # number of ReadCleanReq misses
system.l2.ReadCleanReq_miss_latency::.cpu.inst    125279000                       # number of ReadCleanReq miss cycles
system.l2.ReadCleanReq_miss_latency::total    125279000                       # number of ReadCleanReq miss cycles
system.l2.ReadCleanReq_accesses::.cpu.inst         2029                       # number of ReadCleanReq accesses(hits+misses)
system.l2.ReadCleanReq_accesses::total           2029                       # number of ReadCleanReq accesses(hits+misses)
system.l2.ReadCleanReq_miss_rate::.cpu.inst     0.636274                       # miss rate for ReadCleanReq accesses
system.l2.ReadCleanReq_miss_rate::total      0.636274                       # miss rate for ReadCleanReq accesses
system.l2.ReadCleanReq_avg_miss_latency::.cpu.inst 97040.278854                       # average ReadCleanReq miss latency
system.l2.ReadCleanReq_avg_miss_latency::total 97040.278854                       # average ReadCleanReq miss latency
system.l2.ReadCleanReq_mshr_hits::.cpu.inst            1                       # number of ReadCleanReq MSHR hits
system.l2.ReadCleanReq_mshr_hits::total             1                       # number of ReadCleanReq MSHR hits
system.l2.ReadCleanReq_mshr_misses::.cpu.inst         1290                       # number of ReadCleanReq MSHR misses
system.l2.ReadCleanReq_mshr_misses::total         1290                       # number of ReadCleanReq MSHR misses
system.l2.ReadCleanReq_mshr_miss_latency::.cpu.inst     99400000                       # number of ReadCleanReq MSHR miss cycles
system.l2.ReadCleanReq_mshr_miss_latency::total     99400000                       # number of ReadCleanReq MSHR miss cycles
system.l2.ReadCleanReq_mshr_miss_rate::.cpu.inst     0.635781                       # mshr miss rate for ReadCleanReq accesses
system.l2.ReadCleanReq_mshr_miss_rate::total     0.635781                       # mshr miss rate for ReadCleanReq accesses
system.l2.ReadCleanReq_avg_mshr_miss_latency::.cpu.inst 77054.263566                       # average ReadCleanReq mshr miss latency
system.l2.ReadCleanReq_avg_mshr_miss_latency::total 77054.263566                       # average ReadCleanReq mshr miss latency
system.l2.ReadSharedReq_hits::.cpu.data          3173                       # number of ReadSharedReq hits
system.l2.ReadSharedReq_hits::total              3173                       # number of ReadSharedReq hits
system.l2.ReadSharedReq_misses::.cpu.data          519                       # number of ReadSharedReq misses
system.l2.ReadSharedReq_misses::total             519                       # number of ReadSharedReq misses
system.l2.ReadSharedReq_miss_latency::.cpu.data     52310000                       # number of ReadSharedReq miss cycles
system.l2.ReadSharedReq_miss_latency::total     52310000                       # number of ReadSharedReq miss cycles
system.l2.ReadSharedReq_accesses::.cpu.data         3692                       # number of ReadSharedReq accesses(hits+misses)
system.l2.ReadSharedReq_accesses::total          3692                       # number of ReadSharedReq accesses(hits+misses)
system.l2.ReadSharedReq_miss_rate::.cpu.data     0.140574                       # miss rate for ReadSharedReq accesses
system.l2.ReadSharedReq_miss_rate::total     0.140574                       # miss rate for ReadSharedReq accesses
system.l2.ReadSharedReq_avg_miss_latency::.cpu.data 100789.980732                       # average ReadSharedReq miss latency
system.l2.ReadSharedReq_avg_miss_latency::total 100789.980732                       # average ReadSharedReq miss latency
system.l2.ReadSharedReq_mshr_hits::.cpu.data            6                       # number of ReadSharedReq MSHR hits
system.l2.ReadSharedReq_mshr_hits::total            6                       # number of ReadSharedReq MSHR hits
system.l2.ReadSharedReq_mshr_misses::.cpu.data          513                       # number of ReadSharedReq MSHR misses
system.l2.ReadSharedReq_mshr_misses::total          513                       # number of ReadSharedReq MSHR misses
system.l2.ReadSharedReq_mshr_miss_latency::.cpu.data     41400000                       # number of ReadSharedReq MSHR miss cycles
system.l2.ReadSharedReq_mshr_miss_latency::total     41400000                       # number of ReadSharedReq MSHR miss cycles
system.l2.ReadSharedReq_mshr_miss_rate::.cpu.data     0.138949                       # mshr miss rate for ReadSharedReq accesses
system.l2.ReadSharedReq_mshr_miss_rate::total     0.138949                       # mshr miss rate for ReadSharedReq accesses
system.l2.ReadSharedReq_avg_mshr_miss_latency::.cpu.data 80701.754386                       # average ReadSharedReq mshr miss latency
system.l2.ReadSharedReq_avg_mshr_miss_latency::total 80701.754386                       # average ReadSharedReq mshr miss latency
system.l2.tags.pwrStateResidencyTicks::UNDEFINED  12449090000                       # Cumulative time (in ticks) in various power states
system.l2.tags.tagsinuse                  3679.959691                       # Cycle average of tags in use
system.l2.tags.total_refs                       26025                       # Total number of references to valid blocks.
system.l2.tags.sampled_refs                      4633                       # Sample count of references to valid blocks.
system.l2.tags.avg_refs                      5.617311                       # Average number of references to valid blocks.
system.l2.tags.warmup_cycle                     87000                       # Cycle when the warmup percentage was hit.
system.l2.tags.occ_blocks::.cpu.inst      1240.055985                       # Average occupied blocks per requestor
system.l2.tags.occ_blocks::.cpu.data      2439.903706                       # Average occupied blocks per requestor
system.l2.tags.occ_percent::.cpu.inst        0.037844                       # Average percentage of cache occupancy
system.l2.tags.occ_percent::.cpu.data        0.074460                       # Average percentage of cache occupancy
system.l2.tags.occ_percent::total            0.112303                       # Average percentage of cache occupancy
system.l2.tags.occ_task_id_blocks::1024          4633                       # Occupied blocks per task id
system.l2.tags.age_task_id_blocks_1024::2            7                       # Occupied blocks per task id
system.l2.tags.age_task_id_blocks_1024::3         2158                       # Occupied blocks per task id
system.l2.tags.age_task_id_blocks_1024::4         2468                       # Occupied blocks per task id
system.l2.tags.occ_task_id_percent::1024     0.141388                       # Percentage of cache occupancy per task id
system.l2.tags.tag_accesses                    212889                       # Number of tag accesses
system.l2.tags.data_accesses                   212889                       # Number of data accesses
system.cpu_voltage_domain.voltage                   1                       # Voltage in Volts
system.mem_ctrls.pwrStateResidencyTicks::UNDEFINED  12449090000                       # Cumulative time (in ticks) in various power states
system.mem_ctrls.bytes_read::.cpu.inst          82560                       # Number of bytes read from this memory
system.mem_ctrls.bytes_read::.cpu.data         213952                       # Number of bytes read from this memory
system.mem_ctrls.bytes_read::total             296512                       # Number of bytes read from this memory
system.mem_ctrls.bytes_inst_read::.cpu.inst        82560                       # Number of instructions bytes read from this memory
system.mem_ctrls.bytes_inst_read::total         82560                       # Number of instructions bytes read from this memory
system.mem_ctrls.num_reads::.cpu.inst            1290                       # Number of read requests responded to by this memory
system.mem_ctrls.num_reads::.cpu.data            3343                       # Number of read requests responded to by this memory
system.mem_ctrls.num_reads::total                4633                       # Number of read requests responded to by this memory
system.mem_ctrls.bw_read::.cpu.inst           6631810                       # Total read bandwidth from this memory (bytes/s)
system.mem_ctrls.bw_read::.cpu.data          17186156                       # Total read bandwidth from this memory (bytes/s)
system.mem_ctrls.bw_read::total              23817966                       # Total read bandwidth from this memory (bytes/s)
system.mem_ctrls.bw_inst_read::.cpu.inst      6631810                       # Instruction read bandwidth from this memory (bytes/s)
system.mem_ctrls.bw_inst_read::total          6631810                       # Instruction read bandwidth from this memory (bytes/s)
system.mem_ctrls.bw_total::.cpu.inst          6631810                       # Total bandwidth to/from this memory (bytes/s)
system.mem_ctrls.bw_total::.cpu.data         17186156                       # Total bandwidth to/from this memory (bytes/s)
system.mem_ctrls.bw_total::total             23817966                       # Total bandwidth to/from this memory (bytes/s)
system.mem_ctrls.avgPriority_.cpu.inst::samples      1290.00                       # Average QoS priority value for accepted requests
system.mem_ctrls.avgPriority_.cpu.data::samples      3343.00                       # Average QoS priority value for accepted requests
system.mem_ctrls.priorityMinLatency      0.000000018750                       # per QoS priority minimum request to response latency (s)
system.mem_ctrls.priorityMaxLatency      0.000000576500                       # per QoS priority maximum request to response latency (s)
system.mem_ctrls.numReadWriteTurnArounds            0                       # Number of turnarounds from READ to WRITE
system.mem_ctrls.numWriteReadTurnArounds            0                       # Number of turnarounds from WRITE to READ
system.mem_ctrls.numStayReadState               12457                       # Number of times bus staying in READ state
system.mem_ctrls.numStayWriteState                  0                       # Number of times bus staying in WRITE state
system.mem_ctrls.readReqs                        4633                       # Number of read requests accepted
system.mem_ctrls.writeReqs                          0                       # Number of write requests accepted
system.mem_ctrls.readBursts                      4633                       # Number of DRAM read bursts, including those serviced by the write queue
system.mem_ctrls.writeBursts                        0                       # Number of DRAM write bursts, including those merged in the write queue
system.mem_ctrls.servicedByWrQ                      0                       # Number of DRAM read bursts serviced by the write queue
system.mem_ctrls.mergedWrBursts                     0                       # Number of DRAM write bursts merged with an existing one
system.mem_ctrls.neitherReadNorWriteReqs            0                       # Number of requests that are neither read nor write
system.mem_ctrls.perBankRdBursts::0               251                       # Per bank write bursts
system.mem_ctrls.perBankRdBursts::1               295                       # Per bank write bursts
system.mem_ctrls.perBankRdBursts::2               184                       # Per bank write bursts
system.mem_ctrls.perBankRdBursts::3               370                       # Per bank write bursts
system.mem_ctrls.perBankRdBursts::4               417                       # Per bank write bursts
system.mem_ctrls.perBankRdBursts::5               373                       # Per bank write bursts
system.mem_ctrls.perBankRdBursts::6               377                       # Per bank write bursts
system.mem_ctrls.perBankRdBursts::7               400                       # Per bank write bursts
system.mem_ctrls.perBankRdBursts::8               356                       # Per bank write bursts
system.mem_ctrls.perBankRdBursts::9               273                       # Per bank write bursts
system.mem_ctrls.perBankRdBursts::10              297                       # Per bank write bursts
system.mem_ctrls.perBankRdBursts::11              160                       # Per bank write bursts
system.mem_ctrls.perBankRdBursts::12              183                       # Per bank write bursts
system.mem_ctrls.perBankRdBursts::13              211                       # Per bank write bursts
system.mem_ctrls.perBankRdBursts::14              271                       # Per bank write bursts
system.mem_ctrls.perBankRdBursts::15              215                       # Per bank write bursts
system.mem_ctrls.perBankWrBursts::0                 0                       # Per bank write bursts
system.mem_ctrls.perBankWrBursts::1                 0                       # Per bank write bursts
system.mem_ctrls.perBankWrBursts::2                 0                       # Per bank write bursts
system.mem_ctrls.perBankWrBursts::3                 0                       # Per bank write bursts
system.mem_ctrls.perBankWrBursts::4                 0                       # Per bank write bursts
system.mem_ctrls.perBankWrBursts::5                 0                       # Per bank write bursts
system.mem_ctrls.perBankWrBursts::6                 0                       # Per bank write bursts
system.mem_ctrls.perBankWrBursts::7                 0                       # Per bank write bursts
system.mem_ctrls.perBankWrBursts::8                 0                       # Per bank write bursts
system.mem_ctrls.perBankWrBursts::9                 0                       # Per bank write bursts
system.mem_ctrls.perBankWrBursts::10                0                       # Per bank write bursts
system.mem_ctrls.perBankWrBursts::11                0                       # Per bank write bursts
system.mem_ctrls.perBankWrBursts::12                0                       # Per bank write bursts
system.mem_ctrls.perBankWrBursts::13                0                       # Per bank write bursts
system.mem_ctrls.perBankWrBursts::14                0                       # Per bank write bursts
system.mem_ctrls.perBankWrBursts::15                0                       # Per bank write bursts
system.mem_ctrls.avgRdQLen                       1.04                       # Average read queue length when enqueuing
system.mem_ctrls.avgWrQLen                       0.00                       # Average write queue length when enqueuing
system.mem_ctrls.totQLat                     42929250                       # Total ticks spent queuing
system.mem_ctrls.totBusLat                   23165000                       # Total ticks spent in databus transfers
system.mem_ctrls.totMemAccLat               129798000                       # Total ticks spent from burst creation until serviced by the DRAM
system.mem_ctrls.avgQLat                      9265.97                       # Average queueing delay per DRAM burst
system.mem_ctrls.avgBusLat                    5000.00                       # Average bus latency per DRAM burst
system.mem_ctrls.avgMemAccLat                28015.97                       # Average memory access latency per DRAM burst
system.mem_ctrls.numRdRetry                         0                       # Number of times read queue was full causing retry
system.mem_ctrls.numWrRetry                         0                       # Number of times write queue was full causing retry
system.mem_ctrls.readRowHits                     3077                       # Number of row buffer hits during reads
system.mem_ctrls.writeRowHits                       0                       # Number of row buffer hits during writes
system.mem_ctrls.readRowHitRate                 66.41                       # Row buffer hit rate for reads
system.mem_ctrls.writeRowHitRate                  nan                       # Row buffer hit rate for writes
system.mem_ctrls.readPktSize::0                     0                       # Read request sizes (log2)
system.mem_ctrls.readPktSize::1                     0                       # Read request sizes (log2)
system.mem_ctrls.readPktSize::2                     0                       # Read request sizes (log2)
system.mem_ctrls.readPktSize::3                     0                       # Read request sizes (log2)
system.mem_ctrls.readPktSize::4                     0                       # Read request sizes (log2)
system.mem_ctrls.readPktSize::5                     0                       # Read request sizes (log2)
system.mem_ctrls.readPktSize::6                  4633                       # Read request sizes (log2)
system.mem_ctrls.writePktSize::0                    0                       # Write request sizes (log2)
system.mem_ctrls.writePktSize::1                    0                       # Write request sizes (log2)
system.mem_ctrls.writePktSize::2                    0                       # Write request sizes (log2)
system.mem_ctrls.writePktSize::3                    0                       # Write request sizes (log2)
system.mem_ctrls.writePktSize::4                    0                       # Write request sizes (log2)
system.mem_ctrls.writePktSize::5                    0                       # Write request sizes (log2)
system.mem_ctrls.writePktSize::6                    0                       # Write request sizes (log2)
system.mem_ctrls.rdQLenPdf::0                    4346                       # What read queue length does an incoming req see
system.mem_ctrls.rdQLenPdf::1                     271                       # What read queue length does an incoming req see
system.mem_ctrls.rdQLenPdf::2                      16                       # What read queue length does an incoming req see
system.mem_ctrls.rdQLenPdf::3                       0                       # What read queue length does an incoming req see
system.mem_ctrls.rdQLenPdf::4                       0                       # What read queue length does an incoming req see
system.mem_ctrls.rdQLenPdf::5                       0                       # What read queue length does an incoming req see
system.mem_ctrls.rdQLenPdf::6                       0                       # What read queue length does an incoming req see
system.mem_ctrls.rdQLenPdf::7                       0                       # What read queue length does an incoming req see
system.mem_ctrls.rdQLenPdf::8                       0                       # What read queue length does an incoming req see
system.mem_ctrls.rdQLenPdf::9                       0                       # What read queue length does an incoming req see
system.mem_ctrls.rdQLenPdf::10                      0                       # What read queue length does an incoming req see
system.mem_ctrls.rdQLenPdf::11                      0                       # What read queue length does an incoming req see
system.mem_ctrls.rdQLenPdf::12                      0                       # What read queue length does an incoming req see
system.mem_ctrls.rdQLenPdf::13                      0                       # What read queue length does an incoming req see
system.mem_ctrls.rdQLenPdf::14                      0                       # What read queue length does an incoming req see
system.mem_ctrls.rdQLenPdf::15                      0                       # What read queue length does an incoming req see
system.mem_ctrls.rdQLenPdf::16                      0                       # What read queue length does an incoming req see
system.mem_ctrls.rdQLenPdf::17                      0                       # What read queue length does an incoming req see
system.mem_ctrls.rdQLenPdf::18                      0                       # What read queue length does an incoming req see
system.mem_ctrls.rdQLenPdf::19                      0                       # What read queue length does an incoming req see
system.mem_ctrls.rdQLenPdf::20                      0                       # What read queue length does an incoming req see
system.mem_ctrls.rdQLenPdf::21                      0                       # What read queue length does an incoming req see
system.mem_ctrls.rdQLenPdf::22                      0                       # What read queue length does an incoming req see
system.mem_ctrls.rdQLenPdf::23                      0                       # What read queue length does an incoming req see
system.mem_ctrls.rdQLenPdf::24                      0                       # What read queue length does an incoming req see
system.mem_ctrls.rdQLenPdf::25                      0                       # What read queue length does an incoming req see
system.mem_ctrls.rdQLenPdf::26                      0                       # What read queue length does an incoming req see
system.mem_ctrls.rdQLenPdf::27                      0                       # What read queue length does an incoming req see
system.mem_ctrls.rdQLenPdf::28                      0                       # What read queue length does an incoming req see
system.mem_ctrls.rdQLenPdf::29                      0                       # What read queue length does an incoming req see
system.mem_ctrls.rdQLenPdf::30                      0                       # What read queue length does an incoming req see
system.mem_ctrls.rdQLenPdf::31                      0                       # What read queue length does an incoming req see
system.mem_ctrls.wrQLenPdf::0                       0                       # What write queue length does an incoming req see
system.mem_ctrls.wrQLenPdf::1                       0                       # What write queue length does an incoming req see
system.mem_ctrls.wrQLenPdf::2                       0                       # What write queue length does an incoming req see
system.mem_ctrls.wrQLenPdf::3                       0                       # What write queue length does an incoming req see
system.mem_ctrls.wrQLenPdf::4                       0                       # What write queue length does an incoming req see
system.mem_ctrls.wrQLenPdf::5                       0                       # What write queue length does an incoming req see
system.mem_ctrls.wrQLenPdf::6                       0                       # What write queue length does an incoming req see
system.mem_ctrls.wrQLenPdf::7                       0                       # What write queue length does an incoming req see
system.mem_ctrls.wrQLenPdf::8                       0                       # What write queue length does an incoming req see
system.mem_ctrls.wrQLenPdf::9                       0                       # What write queue length does an incoming req see
system.mem_ctrls.wrQLenPdf::10                      0                       # What write queue length does an incoming req see
system.mem_ctrls.wrQLenPdf::11                      0                       # What write queue length does an incoming req see
system.mem_ctrls.wrQLenPdf::12                      0                       # What write queue length does an incoming req see
system.mem_ctrls.wrQLenPdf::13                      0                       # What write queue length does an incoming req see
system.mem_ctrls.wrQLenPdf::14                      0                       # What write queue length does an incoming req see
system.mem_ctrls.wrQLenPdf::15                      0                       # What write queue length does an incoming req see
system.mem_ctrls.wrQLenPdf::16                      0                       # What write queue length does an incoming req see
system.mem_ctrls.wrQLenPdf::17                      0                       # What write queue length does an incoming req see
system.mem_ctrls.wrQLenPdf::18                      0                       # What write queue length does an incoming req see
system.mem_ctrls.wrQLenPdf::19                      0                       # What write queue length does an incoming req see
system.mem_ctrls.wrQLenPdf::20                      0                       # What write queue length does an incoming req see
system.mem_ctrls.wrQLenPdf::21                      0                       # What write queue length does an incoming req see
system.mem_ctrls.wrQLenPdf::22                      0                       # What write queue length does an incoming req see
system.mem_ctrls.wrQLenPdf::23                      0                       # What write queue length does an incoming req see
system.mem_ctrls.wrQLenPdf::24                      0                       # What write queue length does an incoming req see
system.mem_ctrls.wrQLenPdf::25                      0                       # What write queue length does an incoming req see
system.mem_ctrls.wrQLenPdf::26                      0                       # What write queue length does an incoming req see
system.mem_ctrls.wrQLenPdf::27                      0                       # What write queue length does an incoming req see
system.mem_ctrls.wrQLenPdf::28                      0                       # What write queue length does an incoming req see
system.mem_ctrls.wrQLenPdf::29                      0                       # What write queue length does an incoming req see
system.mem_ctrls.wrQLenPdf::30                      0                       # What write queue length does an incoming req see
system.mem_ctrls.wrQLenPdf::31                      0                       # What write queue length does an incoming req see
system.mem_ctrls.wrQLenPdf::32                      0                       # What write queue length does an incoming req see
system.mem_ctrls.wrQLenPdf::33                      0                       # What write queue length does an incoming req see
system.mem_ctrls.wrQLenPdf::34                      0                       # What write queue length does an incoming req see
system.mem_ctrls.wrQLenPdf::35                      0                       # What write queue length does an incoming req see
system.mem_ctrls.wrQLenPdf::36                      0                       # What write queue length does an incoming req see
system.mem_ctrls.wrQLenPdf::37                      0                       # What write queue length does an incoming req see
system.mem_ctrls.wrQLenPdf::38                      0                       # What write queue length does an incoming req see
system.mem_ctrls.wrQLenPdf::39                      0                       # What write queue length does an incoming req see
system.mem_ctrls.wrQLenPdf::40                      0                       # What write queue length does an incoming req see
system.mem_ctrls.wrQLenPdf::41                      0                       # What write queue length does an incoming req see
system.mem_ctrls.wrQLenPdf::42                      0                       # What write queue length does an incoming req see
system.mem_ctrls.wrQLenPdf::43                      0                       # What write queue length does an incoming req see
system.mem_ctrls.wrQLenPdf::44                      0                       # What write queue length does an incoming req see
system.mem_ctrls.wrQLenPdf::45                      0                       # What write queue length does an incoming req see
system.mem_ctrls.wrQLenPdf::46                      0                       # What write queue length does an incoming req see
system.mem_ctrls.wrQLenPdf::47                      0                       # What write queue length does an incoming req see
system.mem_ctrls.wrQLenPdf::48                      0                       # What write queue length does an incoming req see
system.mem_ctrls.wrQLenPdf::49                      0                       # What write queue length does an incoming req see
system.mem_ctrls.wrQLenPdf::50                      0                       # What write queue length does an incoming req see
system.mem_ctrls.wrQLenPdf::51                      0                       # What write queue length does an incoming req see
system.mem_ctrls.wrQLenPdf::52                      0                       # What write queue length does an incoming req see
system.mem_ctrls.wrQLenPdf::53                      0                       # What write queue length does an incoming req see
system.mem_ctrls.wrQLenPdf::54                      0                       # What write queue length does an incoming req see
system.mem_ctrls.wrQLenPdf::55                      0                       # What write queue length does an incoming req see
system.mem_ctrls.wrQLenPdf::56                      0                       # What write queue length does an incoming req see
system.mem_ctrls.wrQLenPdf::57                      0                       # What write queue length does an incoming req see
system.mem_ctrls.wrQLenPdf::58                      0                       # What write queue length does an incoming req see
system.mem_ctrls.wrQLenPdf::59                      0                       # What write queue length does an incoming req see
system.mem_ctrls.wrQLenPdf::60                      0                       # What write queue length does an incoming req see
system.mem_ctrls.wrQLenPdf::61                      0                       # What write queue length does an incoming req see
system.mem_ctrls.wrQLenPdf::62                      0                       # What write queue length does an incoming req see
system.mem_ctrls.wrQLenPdf::63                      0                       # What write queue length does an incoming req see
system.mem_ctrls.bytesPerActivate::samples         1556                       # Bytes accessed per row activation
system.mem_ctrls.bytesPerActivate::mean    190.560411                       # Bytes accessed per row activation
system.mem_ctrls.bytesPerActivate::gmean   122.116784                       # Bytes accessed per row activation
system.mem_ctrls.bytesPerActivate::stdev   247.164373                       # Bytes accessed per row activation
system.mem_ctrls.bytesPerActivate::0-127          722     46.40%     46.40% # Bytes accessed per row activation
system.mem_ctrls.bytesPerActivate::128-255          556     35.73%     82.13% # Bytes accessed per row activation
system.mem_ctrls.bytesPerActivate::256-383           81      5.21%     87.34% # Bytes accessed per row activation
system.mem_ctrls.bytesPerActivate::384-511           45      2.89%     90.23% # Bytes accessed per row activation
system.mem_ctrls.bytesPerActivate::512-639           24      1.54%     91.77% # Bytes accessed per row activation
system.mem_ctrls.bytesPerActivate::640-767           12      0.77%     92.54% # Bytes accessed per row activation
system.mem_ctrls.bytesPerActivate::768-895           14      0.90%     93.44% # Bytes accessed per row activation
system.mem_ctrls.bytesPerActivate::896-1023           20      1.29%     94.73% # Bytes accessed per row activation
system.mem_ctrls.bytesPerActivate::1024-1151           82      5.27%    100.00% # Bytes accessed per row activation
system.mem_ctrls.bytesPerActivate::total         1556                       # Bytes accessed per row activation
system.mem_ctrls.bytesReadDRAM                 296512                       # Total number of bytes read from DRAM
system.mem_ctrls.bytesReadWrQ                       0                       # Total number of bytes read from write queue
system.mem_ctrls.bytesWritten                       0                       # Total number of bytes written to DRAM
system.mem_ctrls.bytesReadSys                  296512                       # Total read bytes from the system interface side
system.mem_ctrls.bytesWrittenSys                    0                       # Total written bytes from the system interface side
system.mem_ctrls.avgRdBW                        23.82                       # Average DRAM read bandwidth in MiByte/s
system.mem_ctrls.avgWrBW                         0.00                       # Average achieved write bandwidth in MiByte/s
system.mem_ctrls.avgRdBWSys                     23.82                       # Average system read bandwidth in MiByte/s
system.mem_ctrls.avgWrBWSys                      0.00                       # Average system write bandwidth in MiByte/s
system.mem_ctrls.peakBW                      12800.00                       # Theoretical peak bandwidth in MiByte/s
system.mem_ctrls.busUtil                         0.19                       # Data bus utilization in percentage
system.mem_ctrls.busUtilRead                     0.19                       # Data bus utilization in percentage for reads
system.mem_ctrls.busUtilWrite                    0.00                       # Data bus utilization in percentage for writes
system.mem_ctrls.totGap                   11801753000                       # Total gap between requests
system.mem_ctrls.avgGap                    2547324.20                       # Average gap between requests
system.mem_ctrls.masterReadBytes::.cpu.inst        82560                       # Per-master bytes read from memory
system.mem_ctrls.masterReadBytes::.cpu.data       213952                       # Per-master bytes read from memory
system.mem_ctrls.masterReadRate::.cpu.inst 6631810.035914272070                       # Per-master bytes read from memory rate (Bytes/sec)
system.mem_ctrls.masterReadRate::.cpu.data 17186155.775241404772                       # Per-master bytes read from memory rate (Bytes/sec)
system.mem_ctrls.masterReadAccesses::.cpu.inst         1290                       # Per-master read serviced memory accesses
system.mem_ctrls.masterReadAccesses::.cpu.data         3343                       # Per-master read serviced memory accesses
system.mem_ctrls.masterReadTotalLat::.cpu.inst     33197250                       # Per-master read total memory access latency
system.mem_ctrls.masterReadTotalLat::.cpu.data     96600750                       # Per-master read total memory access latency
system.mem_ctrls.masterReadAvgLat::.cpu.inst     25734.30                       # Per-master read average memory access latency
system.mem_ctrls.masterReadAvgLat::.cpu.data     28896.43                       # Per-master read average memory access latency
[...]
system.cpu.icache.tags.occ_percent::total     0.984997                       # Average percentage of cache occupancy
system.cpu.icache.tags.occ_task_id_blocks::1024          508                       # Occupied blocks per task id
system.cpu.icache.tags.age_task_id_blocks_1024::2           26                       # Occupied blocks per task id
system.cpu.icache.tags.age_task_id_blocks_1024::3           96                       # Occupied blocks per task id
system.cpu.icache.tags.age_task_id_blocks_1024::4          386                       # Occupied blocks per task id
system.cpu.icache.tags.occ_task_id_percent::1024     0.992188                       # Percentage of cache occupancy per task id
system.cpu.icache.tags.tag_accesses           3628105                       # Number of tag accesses
system.cpu.icache.tags.data_accesses          3628105                       # Number of data accesses
system.cpu.dtb.walker.pwrStateResidencyTicks::UNDEFINED  12449090000                       # Cumulative time (in ticks) in various power states
system.cpu.dtb.stage2_mmu.stage2_tlb.walker.pwrStateResidencyTicks::UNDEFINED  12449090000                       # Cumulative time (in ticks) in various power states
system.cpu.dcache.pwrStateResidencyTicks::UNDEFINED  12449090000                       # Cumulative time (in ticks) in various power states
system.cpu.dcache.demand_hits::.cpu.data      4258125                       # number of demand (read+write) hits
system.cpu.dcache.demand_hits::total          4258125                       # number of demand (read+write) hits
system.cpu.dcache.overall_hits::.cpu.data      4259169                       # number of overall hits
system.cpu.dcache.overall_hits::total         4259169                       # number of overall hits
system.cpu.dcache.demand_misses::.cpu.data        14931                       # number of demand (read+write) misses
system.cpu.dcache.demand_misses::total          14931                       # number of demand (read+write) misses
system.cpu.dcache.overall_misses::.cpu.data        15037                       # number of overall misses
system.cpu.dcache.overall_misses::total         15037                       # number of overall misses
system.cpu.dcache.demand_miss_latency::.cpu.data    749652000                       # number of demand (read+write) miss cycles
system.cpu.dcache.demand_miss_latency::total    749652000                       # number of demand (read+write) miss cycles
system.cpu.dcache.overall_miss_latency::.cpu.data    749652000                       # number of overall miss cycles
system.cpu.dcache.overall_miss_latency::total    749652000                       # number of overall miss cycles
system.cpu.dcache.demand_accesses::.cpu.data      4273056                       # number of demand (read+write) accesses
system.cpu.dcache.demand_accesses::total      4273056                       # number of demand (read+write) accesses
system.cpu.dcache.overall_accesses::.cpu.data      4274206                       # number of overall (read+write) accesses
system.cpu.dcache.overall_accesses::total      4274206                       # number of overall (read+write) accesses
system.cpu.dcache.demand_miss_rate::.cpu.data     0.003494                       # miss rate for demand accesses
system.cpu.dcache.demand_miss_rate::total     0.003494                       # miss rate for demand accesses
system.cpu.dcache.overall_miss_rate::.cpu.data     0.003518                       # miss rate for overall accesses
system.cpu.dcache.overall_miss_rate::total     0.003518                       # miss rate for overall accesses
system.cpu.dcache.demand_avg_miss_latency::.cpu.data 50207.755676                       # average overall miss latency
system.cpu.dcache.demand_avg_miss_latency::total 50207.755676                       # average overall miss latency
system.cpu.dcache.overall_avg_miss_latency::.cpu.data 49853.827226                       # average overall miss latency
system.cpu.dcache.overall_avg_miss_latency::total 49853.827226                       # average overall miss latency
system.cpu.dcache.blocked_cycles::no_mshrs          123                       # number of cycles access was blocked
system.cpu.dcache.blocked_cycles::no_targets            0                       # number of cycles access was blocked
system.cpu.dcache.blocked::no_mshrs                 2                       # number of cycles access was blocked
system.cpu.dcache.blocked::no_targets               0                       # number of cycles access was blocked
system.cpu.dcache.avg_blocked_cycles::no_mshrs    61.500000                       # average number of cycles each access was blocked
system.cpu.dcache.avg_blocked_cycles::no_targets          nan                       # average number of cycles each access was blocked
system.cpu.dcache.writebacks::.writebacks        10163                       # number of writebacks
system.cpu.dcache.writebacks::total             10163                       # number of writebacks
system.cpu.dcache.demand_mshr_hits::.cpu.data         3187                       # number of demand (read+write) MSHR hits
system.cpu.dcache.demand_mshr_hits::total         3187                       # number of demand (read+write) MSHR hits
system.cpu.dcache.overall_mshr_hits::.cpu.data         3187                       # number of overall MSHR hits
system.cpu.dcache.overall_mshr_hits::total         3187                       # number of overall MSHR hits
system.cpu.dcache.demand_mshr_misses::.cpu.data        11744                       # number of demand (read+write) MSHR misses
system.cpu.dcache.demand_mshr_misses::total        11744                       # number of demand (read+write) MSHR misses
system.cpu.dcache.overall_mshr_misses::.cpu.data        11838                       # number of overall MSHR misses
system.cpu.dcache.overall_mshr_misses::total        11838                       # number of overall MSHR misses
system.cpu.dcache.demand_mshr_miss_latency::.cpu.data    541321000                       # number of demand (read+write) MSHR miss cycles
system.cpu.dcache.demand_mshr_miss_latency::total    541321000                       # number of demand (read+write) MSHR miss cycles
system.cpu.dcache.overall_mshr_miss_latency::.cpu.data    550822000                       # number of overall MSHR miss cycles
system.cpu.dcache.overall_mshr_miss_latency::total    550822000                       # number of overall MSHR miss cycles
system.cpu.dcache.demand_mshr_miss_rate::.cpu.data     0.002748                       # mshr miss rate for demand accesses
system.cpu.dcache.demand_mshr_miss_rate::total     0.002748                       # mshr miss rate for demand accesses
system.cpu.dcache.overall_mshr_miss_rate::.cpu.data     0.002770                       # mshr miss rate for overall accesses
system.cpu.dcache.overall_mshr_miss_rate::total     0.002770                       # mshr miss rate for overall accesses
system.cpu.dcache.demand_avg_mshr_miss_latency::.cpu.data 46093.409401                       # average overall mshr miss latency
system.cpu.dcache.demand_avg_mshr_miss_latency::total 46093.409401                       # average overall mshr miss latency
system.cpu.dcache.overall_avg_mshr_miss_latency::.cpu.data 46529.988174                       # average overall mshr miss latency
system.cpu.dcache.overall_avg_mshr_miss_latency::total 46529.988174                       # average overall mshr miss latency
system.cpu.dcache.replacements                  10815                       # number of replacements
system.cpu.dcache.ReadReq_hits::.cpu.data      3527550                       # number of ReadReq hits
system.cpu.dcache.ReadReq_hits::total         3527550                       # number of ReadReq hits
system.cpu.dcache.ReadReq_misses::.cpu.data         3656                       # number of ReadReq misses
system.cpu.dcache.ReadReq_misses::total          3656                       # number of ReadReq misses
system.cpu.dcache.ReadReq_miss_latency::.cpu.data    133084000                       # number of ReadReq miss cycles
system.cpu.dcache.ReadReq_miss_latency::total    133084000                       # number of ReadReq miss cycles
system.cpu.dcache.ReadReq_accesses::.cpu.data      3531206                       # number of ReadReq accesses(hits+misses)
system.cpu.dcache.ReadReq_accesses::total      3531206                       # number of ReadReq accesses(hits+misses)
system.cpu.dcache.ReadReq_miss_rate::.cpu.data     0.001035                       # miss rate for ReadReq accesses
system.cpu.dcache.ReadReq_miss_rate::total     0.001035                       # miss rate for ReadReq accesses
system.cpu.dcache.ReadReq_avg_miss_latency::.cpu.data 36401.531729                       # average ReadReq miss latency
system.cpu.dcache.ReadReq_avg_miss_latency::total 36401.531729                       # average ReadReq miss latency
system.cpu.dcache.ReadReq_mshr_hits::.cpu.data           59                       # number of ReadReq MSHR hits
system.cpu.dcache.ReadReq_mshr_hits::total           59                       # number of ReadReq MSHR hits
system.cpu.dcache.ReadReq_mshr_misses::.cpu.data         3597                       # number of ReadReq MSHR misses
system.cpu.dcache.ReadReq_mshr_misses::total         3597                       # number of ReadReq MSHR misses
system.cpu.dcache.ReadReq_mshr_miss_latency::.cpu.data    120833000                       # number of ReadReq MSHR miss cycles
system.cpu.dcache.ReadReq_mshr_miss_latency::total    120833000                       # number of ReadReq MSHR miss cycles
system.cpu.dcache.ReadReq_mshr_miss_rate::.cpu.data     0.001019                       # mshr miss rate for ReadReq accesses
system.cpu.dcache.ReadReq_mshr_miss_rate::total     0.001019                       # mshr miss rate for ReadReq accesses
system.cpu.dcache.ReadReq_avg_mshr_miss_latency::.cpu.data 33592.716152                       # average ReadReq mshr miss latency
system.cpu.dcache.ReadReq_avg_mshr_miss_latency::total 33592.716152                       # average ReadReq mshr miss latency
system.cpu.dcache.WriteReq_hits::.cpu.data       730575                       # number of WriteReq hits
system.cpu.dcache.WriteReq_hits::total         730575                       # number of WriteReq hits
system.cpu.dcache.WriteReq_misses::.cpu.data        11275                       # number of WriteReq misses
system.cpu.dcache.WriteReq_misses::total        11275                       # number of WriteReq misses
system.cpu.dcache.WriteReq_miss_latency::.cpu.data    616568000                       # number of WriteReq miss cycles
system.cpu.dcache.WriteReq_miss_latency::total    616568000                       # number of WriteReq miss cycles
system.cpu.dcache.WriteReq_accesses::.cpu.data       741850                       # number of WriteReq accesses(hits+misses)
system.cpu.dcache.WriteReq_accesses::total       741850                       # number of WriteReq accesses(hits+misses)
system.cpu.dcache.WriteReq_miss_rate::.cpu.data     0.015198                       # miss rate for WriteReq accesses
system.cpu.dcache.WriteReq_miss_rate::total     0.015198                       # miss rate for WriteReq accesses
system.cpu.dcache.WriteReq_avg_miss_latency::.cpu.data 54684.523282                       # average WriteReq miss latency
system.cpu.dcache.WriteReq_avg_miss_latency::total 54684.523282                       # average WriteReq miss latency
system.cpu.dcache.WriteReq_mshr_hits::.cpu.data         3128                       # number of WriteReq MSHR hits
system.cpu.dcache.WriteReq_mshr_hits::total         3128                       # number of WriteReq MSHR hits
system.cpu.dcache.WriteReq_mshr_misses::.cpu.data         8147                       # number of WriteReq MSHR misses
system.cpu.dcache.WriteReq_mshr_misses::total         8147                       # number of WriteReq MSHR misses
system.cpu.dcache.WriteReq_mshr_miss_latency::.cpu.data    420488000                       # number of WriteReq MSHR miss cycles
system.cpu.dcache.WriteReq_mshr_miss_latency::total    420488000                       # number of WriteReq MSHR miss cycles
system.cpu.dcache.WriteReq_mshr_miss_rate::.cpu.data     0.010982                       # mshr miss rate for WriteReq accesses
system.cpu.dcache.WriteReq_mshr_miss_rate::total     0.010982                       # mshr miss rate for WriteReq accesses
system.cpu.dcache.WriteReq_avg_mshr_miss_latency::.cpu.data 51612.618142                       # average WriteReq mshr miss latency
system.cpu.dcache.WriteReq_avg_mshr_miss_latency::total 51612.618142                       # average WriteReq mshr miss latency
system.cpu.dcache.SoftPFReq_hits::.cpu.data         1044                       # number of SoftPFReq hits
system.cpu.dcache.SoftPFReq_hits::total          1044                       # number of SoftPFReq hits
system.cpu.dcache.SoftPFReq_misses::.cpu.data          106                       # number of SoftPFReq misses
system.cpu.dcache.SoftPFReq_misses::total          106                       # number of SoftPFReq misses
system.cpu.dcache.SoftPFReq_accesses::.cpu.data         1150                       # number of SoftPFReq accesses(hits+misses)
system.cpu.dcache.SoftPFReq_accesses::total         1150                       # number of SoftPFReq accesses(hits+misses)
system.cpu.dcache.SoftPFReq_miss_rate::.cpu.data     0.092174                       # miss rate for SoftPFReq accesses
system.cpu.dcache.SoftPFReq_miss_rate::total     0.092174                       # miss rate for SoftPFReq accesses
system.cpu.dcache.SoftPFReq_mshr_misses::.cpu.data           94                       # number of SoftPFReq MSHR misses
system.cpu.dcache.SoftPFReq_mshr_misses::total           94                       # number of SoftPFReq MSHR misses
system.cpu.dcache.SoftPFReq_mshr_miss_latency::.cpu.data      9501000                       # number of SoftPFReq MSHR miss cycles
system.cpu.dcache.SoftPFReq_mshr_miss_latency::total      9501000                       # number of SoftPFReq MSHR miss cycles
system.cpu.dcache.SoftPFReq_mshr_miss_rate::.cpu.data     0.081739                       # mshr miss rate for SoftPFReq accesses
system.cpu.dcache.SoftPFReq_mshr_miss_rate::total     0.081739                       # mshr miss rate for SoftPFReq accesses
system.cpu.dcache.SoftPFReq_avg_mshr_miss_latency::.cpu.data 101074.468085                       # average SoftPFReq mshr miss latency
system.cpu.dcache.SoftPFReq_avg_mshr_miss_latency::total 101074.468085                       # average SoftPFReq mshr miss latency
system.cpu.dcache.LoadLockedReq_hits::.cpu.data          165                       # number of LoadLockedReq hits
system.cpu.dcache.LoadLockedReq_hits::total          165                       # number of LoadLockedReq hits
system.cpu.dcache.LoadLockedReq_misses::.cpu.data            1                       # number of LoadLockedReq misses
system.cpu.dcache.LoadLockedReq_misses::total            1                       # number of LoadLockedReq misses
system.cpu.dcache.LoadLockedReq_miss_latency::.cpu.data       109000                       # number of LoadLockedReq miss cycles
system.cpu.dcache.LoadLockedReq_miss_latency::total       109000                       # number of LoadLockedReq miss cycles
system.cpu.dcache.LoadLockedReq_accesses::.cpu.data          166                       # number of LoadLockedReq accesses(hits+misses)
system.cpu.dcache.LoadLockedReq_accesses::total          166                       # number of LoadLockedReq accesses(hits+misses)
system.cpu.dcache.LoadLockedReq_miss_rate::.cpu.data     0.006024                       # miss rate for LoadLockedReq accesses
system.cpu.dcache.LoadLockedReq_miss_rate::total     0.006024                       # miss rate for LoadLockedReq accesses
system.cpu.dcache.LoadLockedReq_avg_miss_latency::.cpu.data       109000                       # average LoadLockedReq miss latency
system.cpu.dcache.LoadLockedReq_avg_miss_latency::total       109000                       # average LoadLockedReq miss latency
system.cpu.dcache.LoadLockedReq_mshr_misses::.cpu.data            1                       # number of LoadLockedReq MSHR misses
system.cpu.dcache.LoadLockedReq_mshr_misses::total            1                       # number of LoadLockedReq MSHR misses
system.cpu.dcache.LoadLockedReq_mshr_miss_latency::.cpu.data       107000                       # number of LoadLockedReq MSHR miss cycles
system.cpu.dcache.LoadLockedReq_mshr_miss_latency::total       107000                       # number of LoadLockedReq MSHR miss cycles
system.cpu.dcache.LoadLockedReq_mshr_miss_rate::.cpu.data     0.006024                       # mshr miss rate for LoadLockedReq accesses
system.cpu.dcache.LoadLockedReq_mshr_miss_rate::total     0.006024                       # mshr miss rate for LoadLockedReq accesses
system.cpu.dcache.LoadLockedReq_avg_mshr_miss_latency::.cpu.data       107000                       # average LoadLockedReq mshr miss latency
system.cpu.dcache.LoadLockedReq_avg_mshr_miss_latency::total       107000                       # average LoadLockedReq mshr miss latency
system.cpu.dcache.StoreCondReq_hits::.cpu.data          166                       # number of StoreCondReq hits
system.cpu.dcache.StoreCondReq_hits::total          166                       # number of StoreCondReq hits
system.cpu.dcache.StoreCondReq_accesses::.cpu.data          166                       # number of StoreCondReq accesses(hits+misses)
system.cpu.dcache.StoreCondReq_accesses::total          166                       # number of StoreCondReq accesses(hits+misses)
system.cpu.dcache.tags.pwrStateResidencyTicks::UNDEFINED  12449090000                       # Cumulative time (in ticks) in various power states
system.cpu.dcache.tags.tagsinuse           931.926319                       # Cycle average of tags in use
system.cpu.dcache.tags.total_refs             4271339                       # Total number of references to valid blocks.
system.cpu.dcache.tags.sampled_refs             11839                       # Sample count of references to valid blocks.
system.cpu.dcache.tags.avg_refs            360.785455                       # Average number of references to valid blocks.
system.cpu.dcache.tags.warmup_cycle            223000                       # Cycle when the warmup percentage was hit.
system.cpu.dcache.tags.occ_blocks::.cpu.data   931.926319                       # Average occupied blocks per requestor
system.cpu.dcache.tags.occ_percent::.cpu.data     0.910084                       # Average percentage of cache occupancy
system.cpu.dcache.tags.occ_percent::total     0.910084                       # Average percentage of cache occupancy
system.cpu.dcache.tags.occ_task_id_blocks::1024         1024                       # Occupied blocks per task id
system.cpu.dcache.tags.age_task_id_blocks_1024::1            2                       # Occupied blocks per task id
system.cpu.dcache.tags.age_task_id_blocks_1024::2          147                       # Occupied blocks per task id
system.cpu.dcache.tags.age_task_id_blocks_1024::3          875                       # Occupied blocks per task id
system.cpu.dcache.tags.occ_task_id_percent::1024            1                       # Percentage of cache occupancy per task id
system.cpu.dcache.tags.tag_accesses           8560915                       # Number of tag accesses
system.cpu.dcache.tags.data_accesses          8560915                       # Number of data accesses
system.cpu.itb.walker.pwrStateResidencyTicks::UNDEFINED  12449090000                       # Cumulative time (in ticks) in various power states
system.cpu.itb.stage2_mmu.stage2_tlb.walker.pwrStateResidencyTicks::UNDEFINED  12449090000                       # Cumulative time (in ticks) in various power states

---------- End Simulation Statistics   ----------
